pdbs/k14ma.pdb
 OpenBabel07281513493D

 73 73  0  0  1  0  0  0  0  0999 V2000
    2.3550   -1.0320   -3.5060 C   0  0  0  0  0  0  0  0  0  0  0  0
    8.3970    0.8260    0.0490 H   0  0  0  0  0  0  0  0  0  0  0  0
    4.0650   -4.0230   -1.4280 H   0  0  0  0  0  0  0  0  0  0  0  0
    4.4480   -2.5270   -2.3510 H   0  0  0  0  0  0  0  0  0  0  0  0
    3.3680   -3.8040   -3.0590 H   0  0  0  0  0  0  0  0  0  0  0  0
   -6.2780    2.7120    0.3940 H   0  0  0  0  0  0  0  0  0  0  0  0
   -5.8230    3.6980    1.7710 H   0  0  0  0  0  0  0  0  0  0  0  0
   -6.1080   -0.7800    3.5780 H   0  0  0  0  0  0  0  0  0  0  0  0
   -5.8940   -2.3260    2.6580 H   0  0  0  0  0  0  0  0  0  0  0  0
   -7.6350   -1.7550    1.2070 H   0  0  0  0  0  0  0  0  0  0  0  0
   -7.9400   -0.2990    2.2190 H   0  0  0  0  0  0  0  0  0  0  0  0
   -7.2160    0.8810    0.2630 H   0  0  0  0  0  0  0  0  0  0  0  0
   -6.3950   -0.5860   -0.3650 H   0  0  0  0  0  0  0  0  0  0  0  0
   -4.4850    0.6190    0.2230 H   0  0  0  0  0  0  0  0  0  0  0  0
   -2.6690    1.1820    2.8330 H   0  0  0  0  0  0  0  0  0  0  0  0
   -2.6370   -0.3310    0.4180 H   0  0  0  0  0  0  0  0  0  0  0  0
   -1.5530   -2.5060    1.4300 H   0  0  0  0  0  0  0  0  0  0  0  0
   -0.5740   -1.3800    2.4450 H   0  0  0  0  0  0  0  0  0  0  0  0
   -0.4820   -1.3940    0.6430 H   0  0  0  0  0  0  0  0  0  0  0  0
    6.2830    1.1270    0.3560 H   0  0  0  0  0  0  0  0  0  0  0  0
    4.4000   -0.8560    1.2330 H   0  0  0  0  0  0  0  0  0  0  0  0
    4.1970   -0.6380   -0.5510 H   0  0  0  0  0  0  0  0  0  0  0  0
    3.8530    1.7960   -0.2750 H   0  0  0  0  0  0  0  0  0  0  0  0
    4.1420    1.6990    1.4940 H   0  0  0  0  0  0  0  0  0  0  0  0
    2.0980    0.4060    1.8780 H   0  0  0  0  0  0  0  0  0  0  0  0
    1.9640    0.0250    0.1380 H   0  0  0  0  0  0  0  0  0  0  0  0
   -1.3660    3.1150   -0.4680 H   0  0  0  0  0  0  0  0  0  0  0  0
   -0.2160    0.4990    0.2910 H   0  0  0  0  0  0  0  0  0  0  0  0
    1.5830    2.5680   -0.2550 H   0  0  0  0  0  0  0  0  0  0  0  0
    1.4080    2.7690    1.4820 H   0  0  0  0  0  0  0  0  0  0  0  0
   -0.1950    1.1170   -4.2840 H   0  0  0  0  0  0  0  0  0  0  0  0
    1.2090    0.8690   -1.7660 H   0  0  0  0  0  0  0  0  0  0  0  0
   -0.3180   -0.1980   -1.8580 H   0  0  0  0  0  0  0  0  0  0  0  0
    0.9310   -1.3030   -1.8850 H   0  0  0  0  0  0  0  0  0  0  0  0
    2.6980   -1.8430   -4.1910 H   0  0  0  0  0  0  0  0  0  0  0  0
    3.2410   -0.4110   -3.2330 H   0  0  0  0  0  0  0  0  0  0  0  0
    6.6630   -1.9670   -0.1650 O   0  0  0  0  0  0  0  0  0  0  0  0
    8.3360   -0.2660   -0.1530 C   0  0  0  0  0  0  0  0  0  0  0  0
    6.9190   -0.7960   -0.0280 C   0  0  0  0  0  0  0  0  0  0  0  0
    1.9540   -2.8610   -0.4490 O   0  0  0  0  0  0  0  0  0  0  0  0
    3.6420   -3.2630   -2.1290 C   0  0  0  0  0  0  0  0  0  0  0  0
    2.4190   -2.5900   -1.5290 C   0  0  0  0  0  0  0  0  0  0  0  0
   -5.8180    2.8120    1.2870 N   0  0  0  0  0  0  0  0  0  0  0  0
   -4.6050    1.9120    2.9290 O   0  0  0  0  0  0  0  0  0  0  0  0
   -5.9770   -1.2190    2.5620 C   0  0  0  0  0  0  0  0  0  0  0  0
   -7.1560   -0.8490    1.6480 C   0  0  0  0  0  0  0  0  0  0  0  0
   -6.5500    0.0370    0.5490 C   0  0  0  0  0  0  0  0  0  0  0  0
   -5.1720    0.4650    1.0840 C   0  0  2  0  0  0  0  0  0  0  0  0
   -4.7870   -0.6520    1.9410 N   0  0  0  0  0  0  0  0  0  0  0  0
   -5.1700    1.7720    1.8750 C   0  0  0  0  0  0  0  0  0  0  0  0
   -3.3250   -1.8580    3.1560 O   0  0  0  0  0  0  0  0  0  0  0  0
   -2.0550    0.8800    2.0730 N   0  0  0  0  0  0  0  0  0  0  0  0
   -3.5140   -1.0510    2.2770 C   0  0  0  0  0  0  0  0  0  0  0  0
   -2.3330   -0.4420    1.4830 C   0  0  2  0  0  0  0  0  0  0  0  0
   -1.1720   -1.4620    1.5100 C   0  0  0  0  0  0  0  0  0  0  0  0
    5.9770    0.1610    0.2430 N   0  0  0  0  0  0  0  0  0  0  0  0
    4.5490   -0.1470    0.3860 C   0  0  0  0  0  0  0  0  0  0  0  0
    3.7310    1.1410    0.6200 C   0  0  0  0  0  0  0  0  0  0  0  0
    2.2390    0.8310    0.8560 C   0  0  0  0  0  0  0  0  0  0  0  0
   -0.9750    2.7860    2.4370 O   0  0  0  0  0  0  0  0  0  0  0  0
   -0.8280    2.2640   -0.6360 N   0  0  0  0  0  0  0  0  0  0  0  0
   -1.0820    1.7970    1.7580 C   0  0  0  0  0  0  0  0  0  0  0  0
   -0.2090    1.5780    0.5100 C   0  0  2  0  0  0  0  0  0  0  0  0
    1.2730    2.0230    0.6670 C   0  0  0  0  0  0  0  0  0  0  0  0
   -1.2780    2.4760   -2.8230 O   0  0  0  0  0  0  0  0  0  0  0  0
    0.4170    0.5660   -3.6820 N   0  0  0  0  0  0  0  0  0  0  0  0
   -0.6950    1.8890   -1.9480 C   0  0  0  0  0  0  0  0  0  0  0  0
    0.2180    0.7000   -2.2390 C   0  0  0  0  0  0  0  0  0  0  0  0
    1.5180   -0.0550   -5.5170 O   0  0  0  0  0  0  0  0  0  0  0  0
    1.8050   -1.6350   -2.2910 N   0  0  0  0  0  0  0  0  0  0  0  0
    1.4000   -0.1470   -4.3210 C   0  0  0  0  0  0  0  0  0  0  0  0
    9.0010   -0.7890    0.5710 H   0  0  0  0  0  0  0  0  0  0  0  0
    8.7160   -0.4510   -1.1830 H   0  0  0  0  0  0  0  0  0  0  0  0
  1 35  1  0  0  0  0
  1 36  1  0  0  0  0
  1 70  1  0  0  0  0
  1 71  1  0  0  0  0
  2 38  1  0  0  0  0
  3 41  1  0  0  0  0
  4 41  1  0  0  0  0
  5 41  1  0  0  0  0
  6 43  1  0  0  0  0
  7 43  1  0  0  0  0
  8 45  1  0  0  0  0
  9 45  1  0  0  0  0
 10 46  1  0  0  0  0
 11 46  1  0  0  0  0
 12 47  1  0  0  0  0
 13 47  1  0  0  0  0
 15 52  1  0  0  0  0
 17 55  1  0  0  0  0
 18 55  1  0  0  0  0
 19 55  1  0  0  0  0
 20 56  1  0  0  0  0
 21 57  1  0  0  0  0
 22 57  1  0  0  0  0
 23 58  1  0  0  0  0
 24 58  1  0  0  0  0
 25 59  1  0  0  0  0
 26 59  1  0  0  0  0
 27 61  1  0  0  0  0
 29 64  1  0  0  0  0
 30 64  1  0  0  0  0
 31 66  1  0  0  0  0
 32 68  1  0  0  0  0
 33 68  1  0  0  0  0
 34 70  1  0  0  0  0
 37 39  2  0  0  0  0
 38 39  1  0  0  0  0
 38 72  1  0  0  0  0
 38 73  1  0  0  0  0
 39 56  1  0  0  0  0
 40 42  2  0  0  0  0
 41 42  1  0  0  0  0
 42 70  1  0  0  0  0
 43 50  1  0  0  0  0
 44 50  2  0  0  0  0
 45 49  1  0  0  0  0
 45 46  1  0  0  0  0
 46 47  1  0  0  0  0
 47 48  1  0  0  0  0
 48 14  1  6  0  0  0
 48 49  1  0  0  0  0
 48 50  1  0  0  0  0
 49 53  1  0  0  0  0
 51 53  2  0  0  0  0
 52 54  1  0  0  0  0
 52 62  1  0  0  0  0
 53 54  1  0  0  0  0
 54 16  1  6  0  0  0
 54 55  1  0  0  0  0
 56 57  1  0  0  0  0
 57 58  1  0  0  0  0
 58 59  1  0  0  0  0
 59 64  1  0  0  0  0
 60 62  2  0  0  0  0
 61 63  1  0  0  0  0
 61 67  1  0  0  0  0
 62 63  1  0  0  0  0
 63 28  1  6  0  0  0
 63 64  1  0  0  0  0
 65 67  2  0  0  0  0
 66 68  1  0  0  0  0
 66 71  1  0  0  0  0
 67 68  1  0  0  0  0
 69 71  2  0  0  0  0
M  END
