pdbs/k18.pdb
 OpenBabel07281513493D

 99 99  0  0  1  0  0  0  0  0999 V2000
   -4.7860    1.5310    1.7280 C   0  0  0  0  0  0  0  0  0  0  0  0
   -6.8340    2.9320    2.1110 N   0  0  0  0  0  0  0  0  0  0  0  0
   -6.3020    1.5430    1.8650 C   0  0  1  0  0  0  0  0  0  0  0  0
   -7.0100    1.2010    0.5520 C   0  0  0  0  0  0  0  0  0  0  0  0
   -6.9770    2.5260   -0.2180 C   0  0  0  0  0  0  0  0  0  0  0  0
   -7.3190    3.5840    0.8400 C   0  0  0  0  0  0  0  0  0  0  0  0
   -4.1370    2.5340    1.5370 O   0  0  0  0  0  0  0  0  0  0  0  0
   -2.2370    0.6890    0.5940 C   0  0  0  0  0  0  0  0  0  0  0  0
   -2.8020    0.0390    1.8800 C   0  0  1  0  0  0  0  0  0  0  0  0
   -2.3900    0.5070    3.2990 C   0  0  0  0  0  0  0  0  0  0  0  0
   -4.2540    0.2720    1.8440 N   0  0  0  0  0  0  0  0  0  0  0  0
   -3.2000    0.8650    4.1210 O   0  0  0  0  0  0  0  0  0  0  0  0
   -0.2330   -0.2320   -2.5650 N   0  0  0  0  0  0  0  0  0  0  0  0
    0.3090    0.1470   -3.6490 C   0  0  0  0  0  0  0  0  0  0  0  0
   -0.1950    1.0400   -4.4460 N   0  0  0  0  0  0  0  0  0  0  0  0
    1.4420   -0.3410   -3.9380 N   0  0  0  0  0  0  0  0  0  0  0  0
   -1.4970   -0.1960   -0.4200 C   0  0  0  0  0  0  0  0  0  0  0  0
   -1.1260    0.5820   -1.6970 C   0  0  0  0  0  0  0  0  0  0  0  0
    1.0110    1.3850    2.8330 C   0  0  0  0  0  0  0  0  0  0  0  0
    0.1080    0.1240    2.9120 C   0  0  1  0  0  0  0  0  0  0  0  0
    0.8730   -0.9700    3.6660 C   0  0  0  0  0  0  0  0  0  0  0  0
   -1.0790    0.5010    3.6850 N   0  0  0  0  0  0  0  0  0  0  0  0
    0.6480   -1.2140    4.8280 O   0  0  0  0  0  0  0  0  0  0  0  0
    0.7620    2.1660    1.5370 C   0  0  0  0  0  0  0  0  0  0  0  0
    1.7930    3.2380    1.1770 C   0  0  0  0  0  0  0  0  0  0  0  0
    1.7670    3.5070   -0.3370 C   0  0  0  0  0  0  0  0  0  0  0  0
    2.7610    4.6070   -0.5450 N   0  0  0  0  0  0  0  0  0  0  0  0
    3.7830   -1.1960    1.4230 C   0  0  0  0  0  0  0  0  0  0  0  0
    2.2670   -1.4620    1.5820 C   0  0  1  0  0  0  0  0  0  0  0  0
    1.8400   -2.6790    0.7680 C   0  0  0  0  0  0  0  0  0  0  0  0
    1.8900   -1.6320    3.0040 N   0  0  0  0  0  0  0  0  0  0  0  0
    1.5520   -3.7230    1.3050 O   0  0  0  0  0  0  0  0  0  0  0  0
    4.0800    0.1710    0.7870 C   0  0  0  0  0  0  0  0  0  0  0  0
    5.5490    0.5290    0.6430 C   0  0  0  0  0  0  0  0  0  0  0  0
    6.4670   -0.2070    0.8690 O   0  0  0  0  0  0  0  0  0  0  0  0
    5.7830    1.8020    0.2160 N   0  0  0  0  0  0  0  0  0  0  0  0
    1.9950   -4.7950   -1.5650 C   0  0  0  0  0  0  0  0  0  0  0  0
    1.2470   -3.4460   -1.5230 C   0  0  1  0  0  0  0  0  0  0  0  0
   -0.2740   -3.5210   -1.3520 C   0  0  0  0  0  0  0  0  0  0  0  0
    1.8200   -2.4730   -0.5850 N   0  0  0  0  0  0  0  0  0  0  0  0
   -0.8010   -3.2680   -0.2390 O   0  0  0  0  0  0  0  0  0  0  0  0
    3.0350   -4.9950   -2.6930 C   0  0  0  0  0  0  0  0  0  0  0  0
    2.3590   -5.2640   -4.0490 C   0  0  0  0  0  0  0  0  0  0  0  0
    4.0600   -3.8520   -2.8000 C   0  0  0  0  0  0  0  0  0  0  0  0
   -0.9620   -3.6960   -2.3860 O   0  0  0  0  0  0  0  0  0  0  0  0
   -7.6310    2.8740    2.7870 H   0  0  0  0  0  0  0  0  0  0  0  0
   -6.0780    3.5180    2.5330 H   0  0  0  0  0  0  0  0  0  0  0  0
   -6.5920    0.8840    2.7160 H   0  0  0  0  0  0  0  0  0  0  0  0
   -8.0660    0.9040    0.7530 H   0  0  0  0  0  0  0  0  0  0  0  0
   -6.5130    0.3730   -0.0030 H   0  0  0  0  0  0  0  0  0  0  0  0
   -5.9510    2.7010   -0.6190 H   0  0  0  0  0  0  0  0  0  0  0  0
   -7.6860    2.5410   -1.0770 H   0  0  0  0  0  0  0  0  0  0  0  0
   -8.4200    3.7320    0.9210 H   0  0  0  0  0  0  0  0  0  0  0  0
   -6.8100    4.5590    0.6670 H   0  0  0  0  0  0  0  0  0  0  0  0
   -3.0780    1.0720   -0.0330 H   0  0  0  0  0  0  0  0  0  0  0  0
   -1.6640    1.5890    0.8720 H   0  0  0  0  0  0  0  0  0  0  0  0
   -2.6620   -1.0680    1.8520 H   0  0  0  0  0  0  0  0  0  0  0  0
   -4.8910   -0.4930    2.0630 H   0  0  0  0  0  0  0  0  0  0  0  0
   -0.0250   -1.2150   -2.2640 H   0  0  0  0  0  0  0  0  0  0  0  0
   -1.0830    1.5260   -4.2180 H   0  0  0  0  0  0  0  0  0  0  0  0
    0.2960    1.3280   -5.3100 H   0  0  0  0  0  0  0  0  0  0  0  0
    1.5750   -1.3600   -4.1630 H   0  0  0  0  0  0  0  0  0  0  0  0
    2.2610    0.2990   -4.0830 H   0  0  0  0  0  0  0  0  0  0  0  0
   -2.1490   -1.0600   -0.6920 H   0  0  0  0  0  0  0  0  0  0  0  0
   -0.5630   -0.6080    0.0130 H   0  0  0  0  0  0  0  0  0  0  0  0
   -0.5990    1.5250   -1.4260 H   0  0  0  0  0  0  0  0  0  0  0  0
   -2.0640    0.8520   -2.2390 H   0  0  0  0  0  0  0  0  0  0  0  0
    0.8340    2.0360    3.7240 H   0  0  0  0  0  0  0  0  0  0  0  0
    2.0800    1.0870    2.9000 H   0  0  0  0  0  0  0  0  0  0  0  0
   -0.2050   -0.3040    1.9400 H   0  0  0  0  0  0  0  0  0  0  0  0
   -0.9300    0.7730    4.6640 H   0  0  0  0  0  0  0  0  0  0  0  0
   -0.2220    2.6780    1.6100 H   0  0  0  0  0  0  0  0  0  0  0  0
    0.7380    1.4340    0.6980 H   0  0  0  0  0  0  0  0  0  0  0  0
    2.8190    2.9190    1.4670 H   0  0  0  0  0  0  0  0  0  0  0  0
    1.5790    4.1750    1.7430 H   0  0  0  0  0  0  0  0  0  0  0  0
    0.7680    3.8470   -0.6960 H   0  0  0  0  0  0  0  0  0  0  0  0
    2.0920    2.6150   -0.9260 H   0  0  0  0  0  0  0  0  0  0  0  0
    2.8320    4.8220   -1.5680 H   0  0  0  0  0  0  0  0  0  0  0  0
    3.6980    4.3020   -0.1980 H   0  0  0  0  0  0  0  0  0  0  0  0
    2.4640    5.4660   -0.0310 H   0  0  0  0  0  0  0  0  0  0  0  0
    4.2370   -1.9790    0.7730 H   0  0  0  0  0  0  0  0  0  0  0  0
    4.2850   -1.2730    2.4170 H   0  0  0  0  0  0  0  0  0  0  0  0
    1.7180   -0.6110    1.1270 H   0  0  0  0  0  0  0  0  0  0  0  0
    2.3580   -2.3500    3.5520 H   0  0  0  0  0  0  0  0  0  0  0  0
    2.1510   -1.5800   -0.9520 H   0  0  0  0  0  0  0  0  0  0  0  0
    1.3690   -2.9750   -2.5300 H   0  0  0  0  0  0  0  0  0  0  0  0
    2.5420   -4.9500   -0.6070 H   0  0  0  0  0  0  0  0  0  0  0  0
    1.2530   -5.6240   -1.6220 H   0  0  0  0  0  0  0  0  0  0  0  0
    6.7480    2.0840    0.1100 H   0  0  0  0  0  0  0  0  0  0  0  0
    5.0230    2.4340    0.0060 H   0  0  0  0  0  0  0  0  0  0  0  0
    3.6170    0.2210   -0.2260 H   0  0  0  0  0  0  0  0  0  0  0  0
    3.6200    0.9620    1.4140 H   0  0  0  0  0  0  0  0  0  0  0  0
    3.6180   -5.9240   -2.4450 H   0  0  0  0  0  0  0  0  0  0  0  0
    1.6760   -6.1430   -3.9880 H   0  0  0  0  0  0  0  0  0  0  0  0
    3.1120   -5.4890   -4.8400 H   0  0  0  0  0  0  0  0  0  0  0  0
    1.7620   -4.3890   -4.3880 H   0  0  0  0  0  0  0  0  0  0  0  0
    4.5440   -3.6490   -1.8180 H   0  0  0  0  0  0  0  0  0  0  0  0
    4.8690   -4.1070   -3.5250 H   0  0  0  0  0  0  0  0  0  0  0  0
    3.5930   -2.9070   -3.1570 H   0  0  0  0  0  0  0  0  0  0  0  0
  1 11  1  0  0  0  0
  1  3  1  0  0  0  0
  1  7  2  0  0  0  0
  2  3  1  0  0  0  0
  2  6  1  0  0  0  0
  2 47  1  0  0  0  0
  2 46  1  0  0  0  0
  3  4  1  0  0  0  0
  3 48  1  1  0  0  0
  4  5  1  0  0  0  0
  4 49  1  0  0  0  0
  4 50  1  0  0  0  0
  5  6  1  0  0  0  0
  5 51  1  0  0  0  0
  5 52  1  0  0  0  0
  6 54  1  0  0  0  0
  6 53  1  0  0  0  0
  8 17  1  0  0  0  0
  8  9  1  0  0  0  0
  8 55  1  0  0  0  0
  8 56  1  0  0  0  0
  9 10  1  0  0  0  0
  9 11  1  0  0  0  0
  9 57  1  6  0  0  0
 10 12  2  0  0  0  0
 10 22  1  0  0  0  0
 11 58  1  0  0  0  0
 13 18  1  0  0  0  0
 13 14  1  0  0  0  0
 13 59  1  0  0  0  0
 14 15  2  0  0  0  0
 14 16  1  0  0  0  0
 15 60  1  0  0  0  0
 15 61  1  0  0  0  0
 16 62  1  0  0  0  0
 16 63  1  0  0  0  0
 17 18  1  0  0  0  0
 17 64  1  0  0  0  0
 17 65  1  0  0  0  0
 18 66  1  0  0  0  0
 18 67  1  0  0  0  0
 19 24  1  0  0  0  0
 19 20  1  0  0  0  0
 19 69  1  0  0  0  0
 19 68  1  0  0  0  0
 20 21  1  0  0  0  0
 20 22  1  0  0  0  0
 20 70  1  6  0  0  0
 21 23  2  0  0  0  0
 21 31  1  0  0  0  0
 22 71  1  0  0  0  0
 24 25  1  0  0  0  0
 24 72  1  0  0  0  0
 24 73  1  0  0  0  0
 25 26  1  0  0  0  0
 25 74  1  0  0  0  0
 25 75  1  0  0  0  0
 26 27  1  0  0  0  0
 26 76  1  0  0  0  0
 26 77  1  0  0  0  0
 27 78  1  0  0  0  0
 27 79  1  0  0  0  0
 27 80  1  0  0  0  0
 28 29  1  0  0  0  0
 28 33  1  0  0  0  0
 28 81  1  0  0  0  0
 28 82  1  0  0  0  0
 29 31  1  0  0  0  0
 29 30  1  0  0  0  0
 29 83  1  6  0  0  0
 30 32  2  0  0  0  0
 30 40  1  0  0  0  0
 31 84  1  0  0  0  0
 33 34  1  0  0  0  0
 33 92  1  0  0  0  0
 33 91  1  0  0  0  0
 34 35  2  0  0  0  0
 34 36  1  0  0  0  0
 36 90  1  0  0  0  0
 36 89  1  0  0  0  0
 37 38  1  0  0  0  0
 37 42  1  0  0  0  0
 37 88  1  0  0  0  0
 37 87  1  0  0  0  0
 38 40  1  0  0  0  0
 38 39  1  0  0  0  0
 38 86  1  6  0  0  0
 39 41  2  0  0  0  0
 39 45  1  0  0  0  0
 40 85  1  0  0  0  0
 42 43  1  0  0  0  0
 42 44  1  0  0  0  0
 42 93  1  0  0  0  0
 43 94  1  0  0  0  0
 43 95  1  0  0  0  0
 43 96  1  0  0  0  0
 44 97  1  0  0  0  0
 44 98  1  0  0  0  0
 44 99  1  0  0  0  0
M  END
