pdbs/k18ma.pdb
 OpenBabel07281513493D

109109  0  0  1  0  0  0  0  0999 V2000
    0.7260   -1.8930    7.6650 H   0  0  0  0  0  0  0  0  0  0  0  0
   -0.8890   -1.3810    8.2660 H   0  0  0  0  0  0  0  0  0  0  0  0
   -0.1520   -0.5470    6.8600 H   0  0  0  0  0  0  0  0  0  0  0  0
   -2.8610   -2.8300    5.3350 H   0  0  0  0  0  0  0  0  0  0  0  0
   -3.0230   -2.0220    6.9350 H   0  0  0  0  0  0  0  0  0  0  0  0
   -2.3870   -1.1090    5.5330 H   0  0  0  0  0  0  0  0  0  0  0  0
    2.0230   -1.6530    5.9460 H   0  0  0  0  0  0  0  0  0  0  0  0
    3.2880   -0.8950    4.9810 H   0  0  0  0  0  0  0  0  0  0  0  0
    3.7870    4.0540   -7.1280 H   0  0  0  0  0  0  0  0  0  0  0  0
   -6.0970    4.3720   -0.6600 H   0  0  0  0  0  0  0  0  0  0  0  0
   -6.5580    3.4180    0.8180 H   0  0  0  0  0  0  0  0  0  0  0  0
   -6.8060    2.7240   -0.8250 H   0  0  0  0  0  0  0  0  0  0  0  0
    4.4420    2.9710   -8.3870 H   0  0  0  0  0  0  0  0  0  0  0  0
    5.5400    4.1810   -7.6130 H   0  0  0  0  0  0  0  0  0  0  0  0
    3.8800    1.2200   -3.5730 C   0  0  0  0  0  0  0  0  0  0  0  0
    4.9870    2.8260   -5.0780 N   0  0  0  0  0  0  0  0  0  0  0  0
    5.1840    1.9240   -3.9460 C   0  0  1  0  0  0  0  0  0  0  0  0
    5.6460    2.8620   -2.8210 C   0  0  0  0  0  0  0  0  0  0  0  0
    4.9070    4.1790   -3.1070 C   0  0  0  0  0  0  0  0  0  0  0  0
    4.5820    4.1470   -4.6110 C   0  0  0  0  0  0  0  0  0  0  0  0
    2.8250    1.4900   -4.0930 O   0  0  0  0  0  0  0  0  0  0  0  0
    1.8210    0.6490   -1.5040 C   0  0  0  0  0  0  0  0  0  0  0  0
    2.7940   -0.4290   -2.0510 C   0  0  1  0  0  0  0  0  0  0  0  0
    2.3570   -1.4060   -3.1730 C   0  0  0  0  0  0  0  0  0  0  0  0
    3.9860    0.2940   -2.5640 N   0  0  0  0  0  0  0  0  0  0  0  0
    3.0370   -1.5750   -4.1570 O   0  0  0  0  0  0  0  0  0  0  0  0
   -0.2370    1.4410    1.6320 N   0  0  0  0  0  0  0  0  0  0  0  0
   -1.1060    2.1730    2.2110 C   0  0  0  0  0  0  0  0  0  0  0  0
   -1.6030    3.3010    1.7650 N   0  0  0  0  0  0  0  0  0  0  0  0
   -1.5010    1.7360    3.3380 N   0  0  0  0  0  0  0  0  0  0  0  0
    1.4730    0.6390   -0.0020 C   0  0  0  0  0  0  0  0  0  0  0  0
    0.4780    1.7530    0.3710 C   0  0  0  0  0  0  0  0  0  0  0  0
   -1.1590   -1.8570   -2.4530 C   0  0  0  0  0  0  0  0  0  0  0  0
    0.2560   -2.2540   -1.9500 C   0  0  1  0  0  0  0  0  0  0  0  0
    0.2680   -3.6990   -1.4300 C   0  0  0  0  0  0  0  0  0  0  0  0
    1.2050   -2.1390   -3.0640 N   0  0  0  0  0  0  0  0  0  0  0  0
    0.7590   -4.5840   -2.0860 O   0  0  0  0  0  0  0  0  0  0  0  0
   -1.5170   -0.4140   -2.0650 C   0  0  0  0  0  0  0  0  0  0  0  0
   -2.9770    0.0590   -2.1660 C   0  0  0  0  0  0  0  0  0  0  0  0
   -3.1270    1.2430   -1.2010 C   0  0  0  0  0  0  0  0  0  0  0  0
   -4.4610    1.8440   -1.1210 N   0  0  0  0  0  0  0  0  0  0  0  0
   -2.3920   -3.4340    1.0490 C   0  0  0  0  0  0  0  0  0  0  0  0
   -0.9330   -3.0390    0.7350 C   0  0  1  0  0  0  0  0  0  0  0  0
   -0.1180   -2.9390    2.0250 C   0  0  0  0  0  0  0  0  0  0  0  0
   -0.2970   -3.9770   -0.2120 N   0  0  0  0  0  0  0  0  0  0  0  0
    0.8250   -3.6520    2.2620 O   0  0  0  0  0  0  0  0  0  0  0  0
   -3.4030   -2.3890    0.5460 C   0  0  0  0  0  0  0  0  0  0  0  0
   -4.8740   -2.6850    0.7720 C   0  0  0  0  0  0  0  0  0  0  0  0
   -5.3020   -3.6220    1.3940 O   0  0  0  0  0  0  0  0  0  0  0  0
   -5.7240   -1.7840    0.2070 N   0  0  0  0  0  0  0  0  0  0  0  0
   -0.0880   -2.8830    5.1650 C   0  0  0  0  0  0  0  0  0  0  0  0
    0.1180   -1.7160    4.1790 C   0  0  1  0  0  0  0  0  0  0  0  0
    1.5420   -1.1970    3.9860 C   0  0  0  0  0  0  0  0  0  0  0  0
   -0.5330   -1.9550    2.8790 N   0  0  0  0  0  0  0  0  0  0  0  0
    1.9220   -0.6950    2.9600 O   0  0  0  0  0  0  0  0  0  0  0  0
   -0.9520   -2.5550    6.4010 C   0  0  0  0  0  0  0  0  0  0  0  0
   -0.2810   -1.5400    7.3440 C   0  0  0  0  0  0  0  0  0  0  0  0
   -2.3770   -2.1050    6.0290 C   0  0  0  0  0  0  0  0  0  0  0  0
    2.3530   -1.2660    5.0740 N   0  0  0  0  0  0  0  0  0  0  0  0
    5.0930    2.4420   -6.3890 C   0  0  0  0  0  0  0  0  0  0  0  0
    4.6930    3.4800   -7.4280 C   0  0  0  0  0  0  0  0  0  0  0  0
    5.4840    1.3450   -6.7030 O   0  0  0  0  0  0  0  0  0  0  0  0
   -4.7290    2.7740   -0.1560 C   0  0  0  0  0  0  0  0  0  0  0  0
   -6.1300    3.3550   -0.2070 C   0  0  0  0  0  0  0  0  0  0  0  0
   -3.8990    3.0960    0.6520 O   0  0  0  0  0  0  0  0  0  0  0  0
    5.9590    1.1470   -4.1470 H   0  0  0  0  0  0  0  0  0  0  0  0
    6.7440    3.0350   -2.9170 H   0  0  0  0  0  0  0  0  0  0  0  0
    5.4600    2.4720   -1.7950 H   0  0  0  0  0  0  0  0  0  0  0  0
    3.9630    4.2170   -2.5130 H   0  0  0  0  0  0  0  0  0  0  0  0
    5.5210    5.0680   -2.8250 H   0  0  0  0  0  0  0  0  0  0  0  0
    5.1580    4.9430   -5.1360 H   0  0  0  0  0  0  0  0  0  0  0  0
    3.4860    4.2950   -4.7640 H   0  0  0  0  0  0  0  0  0  0  0  0
    2.2590    1.6700   -1.6370 H   0  0  0  0  0  0  0  0  0  0  0  0
    0.9180    0.6460   -2.1430 H   0  0  0  0  0  0  0  0  0  0  0  0
    3.1470   -1.0740   -1.2090 H   0  0  0  0  0  0  0  0  0  0  0  0
    4.9070    0.0620   -2.1950 H   0  0  0  0  0  0  0  0  0  0  0  0
    0.1420    0.6420    2.2050 H   0  0  0  0  0  0  0  0  0  0  0  0
   -1.3030    3.6960    0.8640 H   0  0  0  0  0  0  0  0  0  0  0  0
   -2.2590    3.8440    2.3380 H   0  0  0  0  0  0  0  0  0  0  0  0
   -0.8130    1.2890    3.9950 H   0  0  0  0  0  0  0  0  0  0  0  0
   -2.4770    1.9420    3.6690 H   0  0  0  0  0  0  0  0  0  0  0  0
    2.4010    0.7420    0.6070 H   0  0  0  0  0  0  0  0  0  0  0  0
    1.0350   -0.3360    0.2920 H   0  0  0  0  0  0  0  0  0  0  0  0
   -0.2820    1.8500   -0.4350 H   0  0  0  0  0  0  0  0  0  0  0  0
    1.0220    2.7230    0.4430 H   0  0  0  0  0  0  0  0  0  0  0  0
   -1.2260   -1.9730   -3.5590 H   0  0  0  0  0  0  0  0  0  0  0  0
   -1.9150   -2.5630   -2.0440 H   0  0  0  0  0  0  0  0  0  0  0  0
    0.6250   -1.6480   -1.1090 H   0  0  0  0  0  0  0  0  0  0  0  0
    1.0540   -2.7740   -3.8450 H   0  0  0  0  0  0  0  0  0  0  0  0
   -0.9260    0.2890   -2.6980 H   0  0  0  0  0  0  0  0  0  0  0  0
   -1.2080   -0.2980   -0.9990 H   0  0  0  0  0  0  0  0  0  0  0  0
   -3.7060   -0.7340   -1.9020 H   0  0  0  0  0  0  0  0  0  0  0  0
   -3.2350    0.3630   -3.2040 H   0  0  0  0  0  0  0  0  0  0  0  0
   -2.4030    2.0430   -1.4920 H   0  0  0  0  0  0  0  0  0  0  0  0
   -2.8620    0.8760   -0.1790 H   0  0  0  0  0  0  0  0  0  0  0  0
   -5.1700    1.6160   -1.8170 H   0  0  0  0  0  0  0  0  0  0  0  0
   -2.5370   -3.5620    2.1460 H   0  0  0  0  0  0  0  0  0  0  0  0
   -2.6210   -4.4300    0.6010 H   0  0  0  0  0  0  0  0  0  0  0  0
   -0.9210   -2.0000    0.3360 H   0  0  0  0  0  0  0  0  0  0  0  0
   -0.2030   -4.9480    0.0840 H   0  0  0  0  0  0  0  0  0  0  0  0
   -3.2860   -2.3230   -0.5540 H   0  0  0  0  0  0  0  0  0  0  0  0
   -3.1710   -1.3950    0.9990 H   0  0  0  0  0  0  0  0  0  0  0  0
   -5.3530   -0.9920   -0.3010 H   0  0  0  0  0  0  0  0  0  0  0  0
   -6.7180   -1.9280    0.3280 H   0  0  0  0  0  0  0  0  0  0  0  0
    0.8940   -3.2870    5.5020 H   0  0  0  0  0  0  0  0  0  0  0  0
   -0.5810   -3.7330    4.6350 H   0  0  0  0  0  0  0  0  0  0  0  0
   -0.3930   -0.8100    4.5850 H   0  0  0  0  0  0  0  0  0  0  0  0
   -1.3170   -1.3660    2.6040 H   0  0  0  0  0  0  0  0  0  0  0  0
   -1.0600   -3.5070    6.9840 H   0  0  0  0  0  0  0  0  0  0  0  0
  1 57  1  0  0  0  0
  2 57  1  0  0  0  0
  3 57  1  0  0  0  0
  4 58  1  0  0  0  0
  5 58  1  0  0  0  0
  6 58  1  0  0  0  0
  7 59  1  0  0  0  0
  8 59  1  0  0  0  0
  9 61  1  0  0  0  0
 10 64  1  0  0  0  0
 11 64  1  0  0  0  0
 12 64  1  0  0  0  0
 13 61  1  0  0  0  0
 14 61  1  0  0  0  0
 15 25  1  0  0  0  0
 15 17  1  0  0  0  0
 15 21  2  0  0  0  0
 16 60  1  0  0  0  0
 16 17  1  0  0  0  0
 16 20  1  0  0  0  0
 17 66  1  6  0  0  0
 17 18  1  0  0  0  0
 18 19  1  0  0  0  0
 18 67  1  0  0  0  0
 18 68  1  0  0  0  0
 19 69  1  0  0  0  0
 19 70  1  0  0  0  0
 19 20  1  0  0  0  0
 20 71  1  0  0  0  0
 20 72  1  0  0  0  0
 22 23  1  0  0  0  0
 22 31  1  0  0  0  0
 22 73  1  0  0  0  0
 22 74  1  0  0  0  0
 23 25  1  0  0  0  0
 23 24  1  0  0  0  0
 23 75  1  1  0  0  0
 24 36  1  0  0  0  0
 24 26  2  0  0  0  0
 25 76  1  0  0  0  0
 27 28  1  0  0  0  0
 27 32  1  0  0  0  0
 27 77  1  0  0  0  0
 28 30  2  0  0  0  0
 28 29  1  0  0  0  0
 29 78  1  0  0  0  0
 29 79  1  0  0  0  0
 30 80  1  0  0  0  0
 30 81  1  0  0  0  0
 31 32  1  0  0  0  0
 31 82  1  0  0  0  0
 31 83  1  0  0  0  0
 32 84  1  0  0  0  0
 32 85  1  0  0  0  0
 33 34  1  0  0  0  0
 33 38  1  0  0  0  0
 33 86  1  0  0  0  0
 33 87  1  0  0  0  0
 34 35  1  0  0  0  0
 34 36  1  0  0  0  0
 34 88  1  1  0  0  0
 35 45  1  0  0  0  0
 35 37  2  0  0  0  0
 36 89  1  0  0  0  0
 38 39  1  0  0  0  0
 38 90  1  0  0  0  0
 38 91  1  0  0  0  0
 39 40  1  0  0  0  0
 39 92  1  0  0  0  0
 39 93  1  0  0  0  0
 40 41  1  0  0  0  0
 40 94  1  0  0  0  0
 40 95  1  0  0  0  0
 41 63  1  0  0  0  0
 41 96  1  0  0  0  0
 42 47  1  0  0  0  0
 42 43  1  0  0  0  0
 42 97  1  0  0  0  0
 42 98  1  0  0  0  0
 43 45  1  0  0  0  0
 43 44  1  0  0  0  0
 43 99  1  6  0  0  0
 44 54  1  0  0  0  0
 44 46  2  0  0  0  0
 45100  1  0  0  0  0
 47 48  1  0  0  0  0
 47102  1  0  0  0  0
 47101  1  0  0  0  0
 48 49  2  0  0  0  0
 48 50  1  0  0  0  0
 50103  1  0  0  0  0
 50104  1  0  0  0  0
 51 56  1  0  0  0  0
 51 52  1  0  0  0  0
 51106  1  0  0  0  0
 51105  1  0  0  0  0
 52 53  1  0  0  0  0
 52 54  1  0  0  0  0
 52107  1  1  0  0  0
 53 55  2  0  0  0  0
 53 59  1  0  0  0  0
 54108  1  0  0  0  0
 56109  1  0  0  0  0
 56 57  1  0  0  0  0
 56 58  1  0  0  0  0
 60 61  1  0  0  0  0
 60 62  2  0  0  0  0
 63 64  1  0  0  0  0
 63 65  2  0  0  0  0
M  END
