pdbs/k23.pdb
 OpenBabel07281513493D

 75 74  0  0  1  0  0  0  0  0999 V2000
    4.5980   -2.4210   -1.4740 C   0  0  0  0  0  0  0  0  0  0  0  0
   -0.1600    3.2620   -6.3810 H   0  0  0  0  0  0  0  0  0  0  0  0
   -0.1350    4.9160   -0.7230 H   0  0  0  0  0  0  0  0  0  0  0  0
    1.4360    5.3400   -1.4920 H   0  0  0  0  0  0  0  0  0  0  0  0
   -0.1130    6.0760   -2.0950 H   0  0  0  0  0  0  0  0  0  0  0  0
   -1.9390    3.7480   -2.0650 H   0  0  0  0  0  0  0  0  0  0  0  0
   -1.6070    3.0350   -3.6700 H   0  0  0  0  0  0  0  0  0  0  0  0
   -1.6950    4.8040   -3.4840 H   0  0  0  0  0  0  0  0  0  0  0  0
    1.8600    3.4950   -0.5520 H   0  0  0  0  0  0  0  0  0  0  0  0
    0.2380    1.7660   -2.4330 H   0  0  0  0  0  0  0  0  0  0  0  0
    0.6530    4.3170   -3.6630 H   0  0  0  0  0  0  0  0  0  0  0  0
   -4.3260   -0.1550   -4.9810 H   0  0  0  0  0  0  0  0  0  0  0  0
   -3.4140    1.2660   -5.2110 H   0  0  0  0  0  0  0  0  0  0  0  0
   -2.9680   -0.1660   -6.0170 H   0  0  0  0  0  0  0  0  0  0  0  0
   -1.5750    0.2490   -4.1030 H   0  0  0  0  0  0  0  0  0  0  0  0
   -2.4760   -1.3000   -3.9250 H   0  0  0  0  0  0  0  0  0  0  0  0
   -3.9720   -0.0060   -2.2670 H   0  0  0  0  0  0  0  0  0  0  0  0
   -3.0540    1.5320   -2.6430 H   0  0  0  0  0  0  0  0  0  0  0  0
   -0.9230   -0.2430   -2.2280 H   0  0  0  0  0  0  0  0  0  0  0  0
   -2.1020   -1.0730   -1.2020 H   0  0  0  0  0  0  0  0  0  0  0  0
   -0.3270    0.0220    1.8480 H   0  0  0  0  0  0  0  0  0  0  0  0
    0.7270    0.1530   -1.0020 H   0  0  0  0  0  0  0  0  0  0  0  0
   -1.4500    1.9470   -0.8990 H   0  0  0  0  0  0  0  0  0  0  0  0
   -2.0070    0.8410    0.3430 H   0  0  0  0  0  0  0  0  0  0  0  0
    1.9820   -2.8280   -2.9310 H   0  0  0  0  0  0  0  0  0  0  0  0
    0.3110   -2.3400   -3.3080 H   0  0  0  0  0  0  0  0  0  0  0  0
    1.4760   -1.1200   -2.6150 H   0  0  0  0  0  0  0  0  0  0  0  0
   -0.0230   -4.3000   -0.4800 H   0  0  0  0  0  0  0  0  0  0  0  0
    1.6100   -4.0000    0.9470 H   0  0  0  0  0  0  0  0  0  0  0  0
    2.3140   -1.3210   -0.3200 H   0  0  0  0  0  0  0  0  0  0  0  0
   -0.3620   -2.2170   -1.0240 H   0  0  0  0  0  0  0  0  0  0  0  0
    6.1070   -4.0430   -0.2780 H   0  0  0  0  0  0  0  0  0  0  0  0
    6.0510   -3.4410    1.3110 H   0  0  0  0  0  0  0  0  0  0  0  0
    6.6750   -2.4700    0.0530 H   0  0  0  0  0  0  0  0  0  0  0  0
    4.4990   -1.6810    0.6160 H   0  0  0  0  0  0  0  0  0  0  0  0
    4.2810   -3.3470   -2.0080 H   0  0  0  0  0  0  0  0  0  0  0  0
    5.6180   -2.1490   -1.8380 H   0  0  0  0  0  0  0  0  0  0  0  0
    3.9360   -1.5810   -1.7850 H   0  0  0  0  0  0  0  0  0  0  0  0
   -0.6620    0.0540   -5.9980 O   0  0  0  0  0  0  0  0  0  0  0  0
    1.2220   -0.5890   -5.0480 O   0  0  0  0  0  0  0  0  0  0  0  0
    2.0500    1.9220   -4.3600 N   0  0  0  0  0  0  0  0  0  0  0  0
    0.4440    0.2870   -5.4440 C   0  0  0  0  0  0  0  0  0  0  0  0
    0.7770    1.7440   -5.1040 C   0  0  2  0  0  0  0  0  0  0  0  0
    0.7280    2.5930   -6.3770 C   0  0  0  0  0  0  0  0  0  0  0  0
    0.3580    5.1380   -1.7010 C   0  0  0  0  0  0  0  0  0  0  0  0
   -1.3340    3.8720   -2.9910 C   0  0  0  0  0  0  0  0  0  0  0  0
    3.2600    2.6170   -2.6110 O   0  0  0  0  0  0  0  0  0  0  0  0
    1.2500    2.7330   -0.8270 N   0  0  0  0  0  0  0  0  0  0  0  0
    2.1690    2.3920   -3.0770 C   0  0  0  0  0  0  0  0  0  0  0  0
    0.8850    2.6450   -2.2610 C   0  0  2  0  0  0  0  0  0  0  0  0
    0.1840    3.9710   -2.7020 C   0  0  0  0  0  0  0  0  0  0  0  0
   -3.3580    0.2250   -5.1300 N   0  0  0  0  0  0  0  0  0  0  0  0
   -2.5700   -0.1890   -3.9280 C   0  0  0  0  0  0  0  0  0  0  0  0
   -2.9780    0.4130   -2.5640 C   0  0  0  0  0  0  0  0  0  0  0  0
   -1.8380   -0.0680   -1.6140 C   0  0  0  0  0  0  0  0  0  0  0  0
    1.2090    2.1510    1.3230 O   0  0  0  0  0  0  0  0  0  0  0  0
    0.1450   -0.2930    1.0040 N   0  0  0  0  0  0  0  0  0  0  0  0
    0.9120    1.8870    0.2030 C   0  0  0  0  0  0  0  0  0  0  0  0
    0.1510    0.6050   -0.1640 C   0  0  2  0  0  0  0  0  0  0  0  0
   -1.3280    0.9030   -0.5380 C   0  0  0  0  0  0  0  0  0  0  0  0
    1.1460   -2.1830   -2.5860 C   0  0  0  0  0  0  0  0  0  0  0  0
    0.5860   -3.9980   -1.1680 O   0  0  0  0  0  0  0  0  0  0  0  0
    0.5830   -2.1300    2.1660 O   0  0  0  0  0  0  0  0  0  0  0  0
    2.2170   -3.2980    0.5300 N   0  0  0  0  0  0  0  0  0  0  0  0
    0.7410   -1.5140    1.1420 C   0  0  0  0  0  0  0  0  0  0  0  0
    1.5720   -2.0930   -0.0280 C   0  0  2  0  0  0  0  0  0  0  0  0
    0.6770   -2.5860   -1.1910 C   0  0  1  0  0  0  0  0  0  0  0  0
    3.8510   -4.6670    1.1250 O   0  0  0  0  0  0  0  0  0  0  0  0
    5.9550   -3.1860    0.3020 N   0  0  0  0  0  0  0  0  0  0  0  0
    3.5450   -3.6250    0.5990 C   0  0  0  0  0  0  0  0  0  0  0  0
    4.5710   -2.6400    0.0460 C   0  0  2  0  0  0  0  0  0  0  0  0
    1.6150    3.2500   -6.4790 H   0  0  0  0  0  0  0  0  0  0  0  0
    0.6770    1.9840   -7.3070 H   0  0  0  0  0  0  0  0  0  0  0  0
   -0.0830    2.0290   -4.4640 H   0  0  0  0  0  0  0  0  0  0  0  0
    2.9320    1.7520   -4.8430 H   0  0  0  0  0  0  0  0  0  0  0  0
  1 36  1  0  0  0  0
  1 37  1  0  0  0  0
  1 38  1  0  0  0  0
  1 71  1  0  0  0  0
  2 44  1  0  0  0  0
  3 45  1  0  0  0  0
  4 45  1  0  0  0  0
  5 45  1  0  0  0  0
  6 46  1  0  0  0  0
  7 46  1  0  0  0  0
  8 46  1  0  0  0  0
  9 48  1  0  0  0  0
 11 51  1  0  0  0  0
 12 52  1  0  0  0  0
 13 52  1  0  0  0  0
 14 52  1  0  0  0  0
 15 53  1  0  0  0  0
 16 53  1  0  0  0  0
 17 54  1  0  0  0  0
 18 54  1  0  0  0  0
 19 55  1  0  0  0  0
 20 55  1  0  0  0  0
 21 57  1  0  0  0  0
 23 60  1  0  0  0  0
 24 60  1  0  0  0  0
 25 61  1  0  0  0  0
 26 61  1  0  0  0  0
 27 61  1  0  0  0  0
 28 62  1  0  0  0  0
 29 64  1  0  0  0  0
 32 69  1  0  0  0  0
 33 69  1  0  0  0  0
 34 69  1  0  0  0  0
 39 42  2  0  0  0  0
 40 42  1  0  0  0  0
 41 43  1  0  0  0  0
 41 49  1  0  0  0  0
 41 75  1  0  0  0  0
 42 43  1  0  0  0  0
 43 44  1  0  0  0  0
 43 74  1  1  0  0  0
 44 72  1  0  0  0  0
 44 73  1  0  0  0  0
 45 51  1  0  0  0  0
 46 51  1  0  0  0  0
 47 49  2  0  0  0  0
 48 58  1  0  0  0  0
 48 50  1  0  0  0  0
 49 50  1  0  0  0  0
 50 10  1  6  0  0  0
 50 51  1  0  0  0  0
 52 53  1  0  0  0  0
 53 54  1  0  0  0  0
 54 55  1  0  0  0  0
 55 60  1  0  0  0  0
 56 58  2  0  0  0  0
 57 65  1  0  0  0  0
 57 59  1  0  0  0  0
 58 59  1  0  0  0  0
 59 22  1  6  0  0  0
 59 60  1  0  0  0  0
 61 67  1  0  0  0  0
 62 67  1  0  0  0  0
 63 65  2  0  0  0  0
 64 70  1  0  0  0  0
 64 66  1  0  0  0  0
 65 66  1  0  0  0  0
 66 30  1  6  0  0  0
 66 67  1  0  0  0  0
 67 31  1  1  0  0  0
 68 70  2  0  0  0  0
 69 71  1  0  0  0  0
 70 71  1  0  0  0  0
 71 35  1  1  0  0  0
M  END
