pdbs/k23ma.pdb
 OpenBabel07281513493D

 85 84  0  0  1  0  0  0  0  0999 V2000
   -1.7950   -2.4760   -3.5090 C   0  0  0  0  0  0  0  0  0  0  0  0
   -2.0470   -1.4410   -4.6160 C   0  0  1  0  0  0  0  0  0  0  0  0
   -0.7510   -1.0640   -5.3410 C   0  0  0  0  0  0  0  0  0  0  0  0
   -2.9420   -2.0050   -5.6430 N   0  0  0  0  0  0  0  0  0  0  0  0
   -0.5580   -1.3890   -6.4890 O   0  0  0  0  0  0  0  0  0  0  0  0
    1.3700   -0.5330   -2.5520 C   0  0  2  0  0  0  0  0  0  0  0  0
    0.2120    0.1610   -3.2940 C   0  0  1  0  0  0  0  0  0  0  0  0
    0.4970    1.6680   -3.4140 C   0  0  0  0  0  0  0  0  0  0  0  0
    0.2050   -0.3490   -4.6760 N   0  0  0  0  0  0  0  0  0  0  0  0
    0.8930    2.1410   -4.4550 O   0  0  0  0  0  0  0  0  0  0  0  0
    2.1980   -1.1930   -3.4870 O   0  0  0  0  0  0  0  0  0  0  0  0
    0.9530   -1.5500   -1.4900 C   0  0  0  0  0  0  0  0  0  0  0  0
    1.0720    2.5950    0.0150 C   0  0  0  0  0  0  0  0  0  0  0  0
   -0.0340    2.0910   -0.9470 C   0  0  1  0  0  0  0  0  0  0  0  0
   -1.4090    2.6580   -0.5880 C   0  0  0  0  0  0  0  0  0  0  0  0
    0.3170    2.4790   -2.3250 N   0  0  0  0  0  0  0  0  0  0  0  0
   -1.9690    3.4500   -1.3040 O   0  0  0  0  0  0  0  0  0  0  0  0
    2.1070    1.4960    0.2950 C   0  0  0  0  0  0  0  0  0  0  0  0
    2.9690    1.6600    1.5580 C   0  0  0  0  0  0  0  0  0  0  0  0
    3.4410    0.2600    1.9900 C   0  0  0  0  0  0  0  0  0  0  0  0
    4.3630    0.2710    3.1280 N   0  0  0  0  0  0  0  0  0  0  0  0
   -1.6580    1.8570    2.9980 C   0  0  0  0  0  0  0  0  0  0  0  0
   -1.5250    1.2690    1.5670 C   0  0  1  0  0  0  0  0  0  0  0  0
   -2.3300   -0.0280    1.4150 C   0  0  0  0  0  0  0  0  0  0  0  0
   -2.0140    2.2390    0.5700 N   0  0  0  0  0  0  0  0  0  0  0  0
   -3.3790   -0.0350    0.8120 O   0  0  0  0  0  0  0  0  0  0  0  0
   -0.3030    2.2200    3.6310 C   0  0  0  0  0  0  0  0  0  0  0  0
   -2.5880    3.0850    3.0760 C   0  0  0  0  0  0  0  0  0  0  0  0
   -0.8510   -1.5880    4.2060 C   0  0  0  0  0  0  0  0  0  0  0  0
   -0.5780   -1.3710    2.7100 C   0  0  1  0  0  0  0  0  0  0  0  0
    0.1500   -2.5830    2.1190 C   0  0  0  0  0  0  0  0  0  0  0  0
   -1.8410   -1.1810    1.9750 N   0  0  0  0  0  0  0  0  0  0  0  0
   -0.3560   -3.2770    1.2800 O   0  0  0  0  0  0  0  0  0  0  0  0
    1.4080   -2.8200    2.5880 N   0  0  0  0  0  0  0  0  0  0  0  0
   -4.2910   -2.1750   -5.5510 C   0  0  0  0  0  0  0  0  0  0  0  0
   -4.9090   -2.6690   -6.4610 O   0  0  0  0  0  0  0  0  0  0  0  0
   -4.9620   -1.7280   -4.2590 C   0  0  0  0  0  0  0  0  0  0  0  0
    4.4770   -0.8030    3.9700 C   0  0  0  0  0  0  0  0  0  0  0  0
    5.5950   -0.6750    4.9880 C   0  0  0  0  0  0  0  0  0  0  0  0
    3.7660   -1.7750    3.8920 O   0  0  0  0  0  0  0  0  0  0  0  0
   -1.6610   -1.9960   -2.5140 H   0  0  0  0  0  0  0  0  0  0  0  0
   -2.6420   -3.1850   -3.3890 H   0  0  0  0  0  0  0  0  0  0  0  0
   -0.9010   -3.0980   -3.7360 H   0  0  0  0  0  0  0  0  0  0  0  0
   -2.4890   -0.4930   -4.2340 H   0  0  0  0  0  0  0  0  0  0  0  0
   -2.5040   -2.3130   -6.5180 H   0  0  0  0  0  0  0  0  0  0  0  0
    2.0290    0.2350   -2.0930 H   0  0  0  0  0  0  0  0  0  0  0  0
   -0.7740    0.0320   -2.8020 H   0  0  0  0  0  0  0  0  0  0  0  0
    1.0300   -0.1190   -5.2320 H   0  0  0  0  0  0  0  0  0  0  0  0
    2.5870   -0.5750   -4.1120 H   0  0  0  0  0  0  0  0  0  0  0  0
    0.1690   -1.1600   -0.8060 H   0  0  0  0  0  0  0  0  0  0  0  0
    1.8190   -1.8430   -0.8560 H   0  0  0  0  0  0  0  0  0  0  0  0
    0.5620   -2.4830   -1.9490 H   0  0  0  0  0  0  0  0  0  0  0  0
    1.5840    3.4970   -0.3930 H   0  0  0  0  0  0  0  0  0  0  0  0
    0.6170    2.9410    0.9660 H   0  0  0  0  0  0  0  0  0  0  0  0
   -0.1600    0.9900   -0.8850 H   0  0  0  0  0  0  0  0  0  0  0  0
    0.4120    3.4760   -2.5220 H   0  0  0  0  0  0  0  0  0  0  0  0
    2.7960    1.4120   -0.5770 H   0  0  0  0  0  0  0  0  0  0  0  0
    1.5650    0.5260    0.3830 H   0  0  0  0  0  0  0  0  0  0  0  0
    2.3880    2.1220    2.3890 H   0  0  0  0  0  0  0  0  0  0  0  0
    3.8280    2.3330    1.3330 H   0  0  0  0  0  0  0  0  0  0  0  0
    3.9450   -0.2600    1.1440 H   0  0  0  0  0  0  0  0  0  0  0  0
    2.5290   -0.3230    2.2590 H   0  0  0  0  0  0  0  0  0  0  0  0
    5.0270    1.0410    3.2210 H   0  0  0  0  0  0  0  0  0  0  0  0
   -2.1250    1.0790    3.6520 H   0  0  0  0  0  0  0  0  0  0  0  0
   -0.4720    1.0100    1.3490 H   0  0  0  0  0  0  0  0  0  0  0  0
   -2.9660    2.5890    0.6870 H   0  0  0  0  0  0  0  0  0  0  0  0
   -0.4190    2.5060    4.7000 H   0  0  0  0  0  0  0  0  0  0  0  0
    0.4130    1.3690    3.6130 H   0  0  0  0  0  0  0  0  0  0  0  0
    0.1700    3.0820    3.1100 H   0  0  0  0  0  0  0  0  0  0  0  0
   -2.7140    3.4340    4.1260 H   0  0  0  0  0  0  0  0  0  0  0  0
   -3.6060    2.8490    2.6900 H   0  0  0  0  0  0  0  0  0  0  0  0
   -2.1850    3.9490    2.4990 H   0  0  0  0  0  0  0  0  0  0  0  0
   -1.0660   -0.6170    4.7120 H   0  0  0  0  0  0  0  0  0  0  0  0
   -1.7290   -2.2570    4.3580 H   0  0  0  0  0  0  0  0  0  0  0  0
    0.0260   -2.0450    4.7190 H   0  0  0  0  0  0  0  0  0  0  0  0
    0.1290   -0.5300    2.5570 H   0  0  0  0  0  0  0  0  0  0  0  0
   -2.4050   -2.0140    1.8090 H   0  0  0  0  0  0  0  0  0  0  0  0
    1.8570   -2.2400    3.2820 H   0  0  0  0  0  0  0  0  0  0  0  0
    1.9240   -3.6050    2.2190 H   0  0  0  0  0  0  0  0  0  0  0  0
   -4.6450   -0.7130   -3.9380 H   0  0  0  0  0  0  0  0  0  0  0  0
   -6.0650   -1.6840   -4.4030 H   0  0  0  0  0  0  0  0  0  0  0  0
   -4.7690   -2.4610   -3.4450 H   0  0  0  0  0  0  0  0  0  0  0  0
    5.6700    0.3650    5.3790 H   0  0  0  0  0  0  0  0  0  0  0  0
    5.4540   -1.3610    5.8530 H   0  0  0  0  0  0  0  0  0  0  0  0
    6.5510   -0.9420    4.4810 H   0  0  0  0  0  0  0  0  0  0  0  0
  1 42  1  0  0  0  0
  1 43  1  0  0  0  0
  1 41  1  0  0  0  0
  1  2  1  0  0  0  0
  2 44  1  1  0  0  0
  2  3  1  0  0  0  0
  2  4  1  0  0  0  0
  3  5  2  0  0  0  0
  3  9  1  0  0  0  0
  4 45  1  0  0  0  0
  4 35  1  0  0  0  0
  6 46  1  1  0  0  0
  6  7  1  0  0  0  0
  6 11  1  0  0  0  0
  6 12  1  0  0  0  0
  7 47  1  1  0  0  0
  7  9  1  0  0  0  0
  7  8  1  0  0  0  0
  8 10  2  0  0  0  0
  8 16  1  0  0  0  0
  9 48  1  0  0  0  0
 11 49  1  0  0  0  0
 12 50  1  0  0  0  0
 12 51  1  0  0  0  0
 12 52  1  0  0  0  0
 13 18  1  0  0  0  0
 13 14  1  0  0  0  0
 13 53  1  0  0  0  0
 13 54  1  0  0  0  0
 14 15  1  0  0  0  0
 14 16  1  0  0  0  0
 14 55  1  1  0  0  0
 15 25  1  0  0  0  0
 15 17  2  0  0  0  0
 16 56  1  0  0  0  0
 18 19  1  0  0  0  0
 18 57  1  0  0  0  0
 18 58  1  0  0  0  0
 19 20  1  0  0  0  0
 19 59  1  0  0  0  0
 19 60  1  0  0  0  0
 20 21  1  0  0  0  0
 20 61  1  0  0  0  0
 20 62  1  0  0  0  0
 21 38  1  0  0  0  0
 21 63  1  0  0  0  0
 22 28  1  0  0  0  0
 22 23  1  0  0  0  0
 22 27  1  0  0  0  0
 22 64  1  0  0  0  0
 23 25  1  0  0  0  0
 23 24  1  0  0  0  0
 23 65  1  6  0  0  0
 24 32  1  0  0  0  0
 24 26  2  0  0  0  0
 25 66  1  0  0  0  0
 27 67  1  0  0  0  0
 27 68  1  0  0  0  0
 27 69  1  0  0  0  0
 28 70  1  0  0  0  0
 28 71  1  0  0  0  0
 28 72  1  0  0  0  0
 29 30  1  0  0  0  0
 29 73  1  0  0  0  0
 29 74  1  0  0  0  0
 29 75  1  0  0  0  0
 30 32  1  0  0  0  0
 30 31  1  0  0  0  0
 30 76  1  6  0  0  0
 31 34  1  0  0  0  0
 31 33  2  0  0  0  0
 32 77  1  0  0  0  0
 34 78  1  0  0  0  0
 34 79  1  0  0  0  0
 35 37  1  0  0  0  0
 35 36  2  0  0  0  0
 37 80  1  0  0  0  0
 37 81  1  0  0  0  0
 37 82  1  0  0  0  0
 38 40  2  0  0  0  0
 38 39  1  0  0  0  0
 39 83  1  0  0  0  0
 39 84  1  0  0  0  0
 39 85  1  0  0  0  0
M  END
