pdbs/k23mtr.pdb
 OpenBabel07281513493D

101100  0  0  1  0  0  0  0  0999 V2000
    6.2170   -0.0380   -6.7800 C   0  0  0  0  0  0  0  0  0  0  0  0
    1.6420    8.1520   -4.3190 H   0  0  0  0  0  0  0  0  0  0  0  0
    5.3440    8.7950   -2.7160 H   0  0  0  0  0  0  0  0  0  0  0  0
    4.5750   16.2880   -5.7130 H   0  0  0  0  0  0  0  0  0  0  0  0
    2.8430   16.4060   -6.2210 H   0  0  0  0  0  0  0  0  0  0  0  0
    3.8360   14.9990   -6.7430 H   0  0  0  0  0  0  0  0  0  0  0  0
    4.0120   13.2460   -5.4450 H   0  0  0  0  0  0  0  0  0  0  0  0
    3.7520   13.0680   -2.6110 H   0  0  0  0  0  0  0  0  0  0  0  0
    2.0900   12.8480   -3.3080 H   0  0  0  0  0  0  0  0  0  0  0  0
    3.0630    7.2540   -4.9680 H   0  0  0  0  0  0  0  0  0  0  0  0
    2.8860    8.9630   -5.3370 H   0  0  0  0  0  0  0  0  0  0  0  0
    3.0090   11.0760   -4.8600 H   0  0  0  0  0  0  0  0  0  0  0  0
    4.6230   11.2230   -4.0730 H   0  0  0  0  0  0  0  0  0  0  0  0
    8.3750   -1.6990   -5.6820 H   0  0  0  0  0  0  0  0  0  0  0  0
    9.0340   -3.3580   -5.6510 H   0  0  0  0  0  0  0  0  0  0  0  0
    7.5720   -2.9900   -4.6800 H   0  0  0  0  0  0  0  0  0  0  0  0
    5.8970    6.5390   -5.6510 H   0  0  0  0  0  0  0  0  0  0  0  0
    6.2740    6.9590   -3.9990 H   0  0  0  0  0  0  0  0  0  0  0  0
    8.8360    3.3020   -4.1850 H   0  0  0  0  0  0  0  0  0  0  0  0
    6.8920    5.0010   -2.5690 H   0  0  0  0  0  0  0  0  0  0  0  0
    8.3520    6.9740   -3.0340 H   0  0  0  0  0  0  0  0  0  0  0  0
    9.5650    5.9220   -3.8550 H   0  0  0  0  0  0  0  0  0  0  0  0
    9.2920    5.7850   -2.0860 H   0  0  0  0  0  0  0  0  0  0  0  0
    8.0180    2.1350    1.4820 H   0  0  0  0  0  0  0  0  0  0  0  0
    9.3780    1.9390    0.3080 H   0  0  0  0  0  0  0  0  0  0  0  0
    9.3760    3.2990    1.4800 H   0  0  0  0  0  0  0  0  0  0  0  0
    6.2680    4.0450    1.1050 H   0  0  0  0  0  0  0  0  0  0  0  0
    6.6110    5.2880   -0.1590 H   0  0  0  0  0  0  0  0  0  0  0  0
    7.6630    5.1630    1.2780 H   0  0  0  0  0  0  0  0  0  0  0  0
    7.4510    0.9030   -0.1640 H   0  0  0  0  0  0  0  0  0  0  0  0
    6.3110    3.3150   -1.5880 H   0  0  0  0  0  0  0  0  0  0  0  0
    8.7560    4.1610   -0.7300 H   0  0  0  0  0  0  0  0  0  0  0  0
    2.5290    7.8810   -1.5920 H   0  0  0  0  0  0  0  0  0  0  0  0
    4.1190    6.0170   -3.2810 H   0  0  0  0  0  0  0  0  0  0  0  0
    2.3240    6.0310   -3.0450 H   0  0  0  0  0  0  0  0  0  0  0  0
    2.6260    5.3830   -0.6310 H   0  0  0  0  0  0  0  0  0  0  0  0
    4.4120    5.4670   -0.8460 H   0  0  0  0  0  0  0  0  0  0  0  0
    4.1730    3.8220   -2.7830 H   0  0  0  0  0  0  0  0  0  0  0  0
    2.4380    3.5870   -2.3210 H   0  0  0  0  0  0  0  0  0  0  0  0
    2.9320    0.1310   -1.1860 H   0  0  0  0  0  0  0  0  0  0  0  0
    5.0050    1.7900   -2.6540 H   0  0  0  0  0  0  0  0  0  0  0  0
    4.6290    3.1300   -0.2490 H   0  0  0  0  0  0  0  0  0  0  0  0
    3.0330    2.3940   -0.3270 H   0  0  0  0  0  0  0  0  0  0  0  0
    4.4650    2.2920   -6.6120 H   0  0  0  0  0  0  0  0  0  0  0  0
    3.8220    3.7340   -5.7540 H   0  0  0  0  0  0  0  0  0  0  0  0
    5.1540    2.7960   -5.0120 H   0  0  0  0  0  0  0  0  0  0  0  0
    1.3950    1.1470   -5.2340 H   0  0  0  0  0  0  0  0  0  0  0  0
    2.3140   -0.5730   -5.6860 H   0  0  0  0  0  0  0  0  0  0  0  0
    4.8370    0.4000   -4.3070 H   0  0  0  0  0  0  0  0  0  0  0  0
    2.8640    2.3670   -3.9860 H   0  0  0  0  0  0  0  0  0  0  0  0
    5.4670   -2.7640   -7.7780 H   0  0  0  0  0  0  0  0  0  0  0  0
    5.8470   -1.4740   -5.1310 H   0  0  0  0  0  0  0  0  0  0  0  0
    5.7100    0.2660   -7.7240 H   0  0  0  0  0  0  0  0  0  0  0  0
    7.2950   -0.1730   -7.0180 H   0  0  0  0  0  0  0  0  0  0  0  0
    6.1710    0.8090   -6.0640 H   0  0  0  0  0  0  0  0  0  0  0  0
    2.6890   15.5250   -3.7140 O   0  0  0  0  0  0  0  0  0  0  0  0
    2.7360    8.2210   -4.5230 C   0  0  0  0  0  0  0  0  0  0  0  0
    4.9090    8.5730   -3.5420 O   0  0  0  0  0  0  0  0  0  0  0  0
    3.6460   15.7040   -5.9020 C   0  0  0  0  0  0  0  0  0  0  0  0
    3.2330   14.9730   -4.6380 C   0  0  0  0  0  0  0  0  0  0  0  0
    3.5290   13.6390   -4.6370 N   0  0  0  0  0  0  0  0  0  0  0  0
    3.1820   12.7580   -3.5170 C   0  0  0  0  0  0  0  0  0  0  0  0
    3.5240   11.3080   -3.9000 C   0  0  0  0  0  0  0  0  0  0  0  0
    2.9790   10.1850   -2.5720 S   0  0  0  0  0  0  0  0  0  0  0  0
    3.5190    8.5830   -3.2600 C   0  0  1  0  0  0  0  0  0  0  0  0
    8.0880   -2.7720   -5.6420 C   0  0  0  0  0  0  0  0  0  0  0  0
    7.5030   -4.0610   -7.5800 O   0  0  0  0  0  0  0  0  0  0  0  0
    7.2180   -3.1700   -6.8210 C   0  0  0  0  0  0  0  0  0  0  0  0
    6.3530    6.3200   -4.7760 N   0  0  0  0  0  0  0  0  0  0  0  0
    7.1300    4.3910   -5.6050 O   0  0  0  0  0  0  0  0  0  0  0  0
    8.2750    3.5340   -3.3640 N   0  0  0  0  0  0  0  0  0  0  0  0
    7.0470    5.1560   -4.6790 C   0  0  0  0  0  0  0  0  0  0  0  0
    7.7000    4.8910   -3.3240 C   0  0  2  0  0  0  0  0  0  0  0  0
    8.7840    5.9470   -3.0620 C   0  0  0  0  0  0  0  0  0  0  0  0
    8.7250    2.6830    0.8190 C   0  0  0  0  0  0  0  0  0  0  0  0
    7.0780    4.5630    0.5450 C   0  0  0  0  0  0  0  0  0  0  0  0
    8.4930    1.3970   -2.7490 O   0  0  0  0  0  0  0  0  0  0  0  0
    6.7600    1.4490   -0.6780 N   0  0  0  0  0  0  0  0  0  0  0  0
    8.0380    2.4870   -2.5100 C   0  0  0  0  0  0  0  0  0  0  0  0
    7.1940    2.7380   -1.2560 C   0  0  2  0  0  0  0  0  0  0  0  0
    7.9760    3.5600   -0.2010 C   0  0  0  0  0  0  0  0  0  0  0  0
    3.3810    7.6300   -2.1510 N   0  0  0  0  0  0  0  0  0  0  0  0
    3.3040    6.2280   -2.5530 C   0  0  0  0  0  0  0  0  0  0  0  0
    3.4510    5.2530   -1.3710 C   0  0  0  0  0  0  0  0  0  0  0  0
    3.4560    3.8190   -1.9290 C   0  0  0  0  0  0  0  0  0  0  0  0
    5.3630   -0.2630   -0.3420 O   0  0  0  0  0  0  0  0  0  0  0  0
    3.4190    0.5200   -1.9940 N   0  0  0  0  0  0  0  0  0  0  0  0
    5.5610    0.8100   -0.8570 C   0  0  0  0  0  0  0  0  0  0  0  0
    4.4930    1.4910   -1.7160 C   0  0  2  0  0  0  0  0  0  0  0  0
    3.8920    2.7070   -0.9650 C   0  0  0  0  0  0  0  0  0  0  0  0
    4.2190    2.7030   -5.6090 C   0  0  0  0  0  0  0  0  0  0  0  0
    2.0590    1.6740   -5.6870 O   0  0  0  0  0  0  0  0  0  0  0  0
    2.0530   -0.7120   -3.2650 O   0  0  0  0  0  0  0  0  0  0  0  0
    3.3220   -0.4960   -5.5450 N   0  0  0  0  0  0  0  0  0  0  0  0
    3.0090    0.0160   -3.2030 C   0  0  0  0  0  0  0  0  0  0  0  0
    3.7440    0.4350   -4.4850 C   0  0  2  0  0  0  0  0  0  0  0  0
    3.2110    1.8210   -4.8850 C   0  0  1  0  0  0  0  0  0  0  0  0
    3.5120   -2.0280   -7.1420 O   0  0  0  0  0  0  0  0  0  0  0  0
    6.0590   -2.4690   -7.0000 N   0  0  0  0  0  0  0  0  0  0  0  0
    4.0700   -1.3190   -6.3400 C   0  0  0  0  0  0  0  0  0  0  0  0
    5.5950   -1.3200   -6.2040 C   0  0  2  0  0  0  0  0  0  0  0  0
  1 53  1  0  0  0  0
  1 54  1  0  0  0  0
  1 55  1  0  0  0  0
  1101  1  0  0  0  0
  2 57  1  0  0  0  0
  3 58  1  0  0  0  0
  4 59  1  0  0  0  0
  5 59  1  0  0  0  0
  6 59  1  0  0  0  0
  7 61  1  0  0  0  0
  8 62  1  0  0  0  0
  9 62  1  0  0  0  0
 10 57  1  0  0  0  0
 11 57  1  0  0  0  0
 12 63  1  0  0  0  0
 13 63  1  0  0  0  0
 14 66  1  0  0  0  0
 15 66  1  0  0  0  0
 16 66  1  0  0  0  0
 17 69  1  0  0  0  0
 18 69  1  0  0  0  0
 19 71  1  0  0  0  0
 21 74  1  0  0  0  0
 22 74  1  0  0  0  0
 23 74  1  0  0  0  0
 24 75  1  0  0  0  0
 25 75  1  0  0  0  0
 26 75  1  0  0  0  0
 27 76  1  0  0  0  0
 28 76  1  0  0  0  0
 29 76  1  0  0  0  0
 30 78  1  0  0  0  0
 32 81  1  0  0  0  0
 33 82  1  0  0  0  0
 34 83  1  0  0  0  0
 35 83  1  0  0  0  0
 36 84  1  0  0  0  0
 37 84  1  0  0  0  0
 38 85  1  0  0  0  0
 39 85  1  0  0  0  0
 40 87  1  0  0  0  0
 42 90  1  0  0  0  0
 43 90  1  0  0  0  0
 44 91  1  0  0  0  0
 45 91  1  0  0  0  0
 46 91  1  0  0  0  0
 47 92  1  0  0  0  0
 48 94  1  0  0  0  0
 51 99  1  0  0  0  0
 56 60  2  0  0  0  0
 58 65  1  0  0  0  0
 59 60  1  0  0  0  0
 60 61  1  0  0  0  0
 61 62  1  0  0  0  0
 62 63  1  0  0  0  0
 63 64  1  0  0  0  0
 64 65  1  0  0  0  0
 65 57  1  6  0  0  0
 65 82  1  0  0  0  0
 66 68  1  0  0  0  0
 67 68  2  0  0  0  0
 68 99  1  0  0  0  0
 69 72  1  0  0  0  0
 70 72  2  0  0  0  0
 71 73  1  0  0  0  0
 71 79  1  0  0  0  0
 72 73  1  0  0  0  0
 73 20  1  1  0  0  0
 73 74  1  0  0  0  0
 75 81  1  0  0  0  0
 76 81  1  0  0  0  0
 77 79  2  0  0  0  0
 78 80  1  0  0  0  0
 78 88  1  0  0  0  0
 79 80  1  0  0  0  0
 80 31  1  6  0  0  0
 80 81  1  0  0  0  0
 82 83  1  0  0  0  0
 83 84  1  0  0  0  0
 84 85  1  0  0  0  0
 85 90  1  0  0  0  0
 86 88  2  0  0  0  0
 87 95  1  0  0  0  0
 87 89  1  0  0  0  0
 88 89  1  0  0  0  0
 89 41  1  6  0  0  0
 89 90  1  0  0  0  0
 91 97  1  0  0  0  0
 92 97  1  0  0  0  0
 93 95  2  0  0  0  0
 94100  1  0  0  0  0
 94 96  1  0  0  0  0
 95 96  1  0  0  0  0
 96 49  1  1  0  0  0
 96 97  1  0  0  0  0
 97 50  1  1  0  0  0
 98100  2  0  0  0  0
 99101  1  0  0  0  0
100101  1  0  0  0  0
101 52  1  1  0  0  0
M  END
