pdbs/k9ma.pdb
 OpenBabel07281513493D

 94 93  0  0  1  0  0  0  0  0999 V2000
   -2.1190   -1.7980    5.7180 H   0  0  0  0  0  0  0  0  0  0  0  0
    1.4190   -0.8860    5.1980 H   0  0  0  0  0  0  0  0  0  0  0  0
    2.4690    0.1830    4.2850 H   0  0  0  0  0  0  0  0  0  0  0  0
    8.6900   -0.8510   -0.2450 H   0  0  0  0  0  0  0  0  0  0  0  0
    8.4050   -1.0210    1.5280 H   0  0  0  0  0  0  0  0  0  0  0  0
    8.5510   -2.4930    0.4860 H   0  0  0  0  0  0  0  0  0  0  0  0
   -7.2740    3.1280   -1.2310 H   0  0  0  0  0  0  0  0  0  0  0  0
   -6.8850    3.9960    0.3000 H   0  0  0  0  0  0  0  0  0  0  0  0
   -6.6360    4.8180   -1.2900 H   0  0  0  0  0  0  0  0  0  0  0  0
    4.0750    0.3070    0.2470 C   0  0  0  0  0  0  0  0  0  0  0  0
   -0.9660   -2.9560    6.4630 H   0  0  0  0  0  0  0  0  0  0  0  0
   -0.5080   -1.2260    6.2890 H   0  0  0  0  0  0  0  0  0  0  0  0
   -0.5840   -3.8750    3.2040 H   0  0  0  0  0  0  0  0  0  0  0  0
   -1.8360   -0.8220    1.7990 H   0  0  0  0  0  0  0  0  0  0  0  0
   -1.2340   -0.4100    3.9280 H   0  0  0  0  0  0  0  0  0  0  0  0
    0.6020   -2.7200    4.5230 H   0  0  0  0  0  0  0  0  0  0  0  0
   -4.3910   -1.9300    0.7640 H   0  0  0  0  0  0  0  0  0  0  0  0
   -0.4070   -4.3290   -0.6080 H   0  0  0  0  0  0  0  0  0  0  0  0
   -1.2490   -1.4110   -0.4000 H   0  0  0  0  0  0  0  0  0  0  0  0
   -2.8910   -3.7030    0.8240 H   0  0  0  0  0  0  0  0  0  0  0  0
   -3.2430   -3.0940   -0.8410 H   0  0  0  0  0  0  0  0  0  0  0  0
   -5.6750    2.0460   -2.3260 H   0  0  0  0  0  0  0  0  0  0  0  0
   -3.0670    1.7250   -0.9560 H   0  0  0  0  0  0  0  0  0  0  0  0
   -2.9980    2.5980   -2.5440 H   0  0  0  0  0  0  0  0  0  0  0  0
   -3.9920    0.4950   -3.6400 H   0  0  0  0  0  0  0  0  0  0  0  0
   -3.9960   -0.2920   -2.0150 H   0  0  0  0  0  0  0  0  0  0  0  0
   -1.5080    0.4090   -1.8490 H   0  0  0  0  0  0  0  0  0  0  0  0
   -1.5510    0.7760   -3.6090 H   0  0  0  0  0  0  0  0  0  0  0  0
    0.5510   -1.8680   -4.6700 H   0  0  0  0  0  0  0  0  0  0  0  0
    0.1610   -1.0030   -1.8160 H   0  0  0  0  0  0  0  0  0  0  0  0
   -2.3320   -1.9740   -2.5010 H   0  0  0  0  0  0  0  0  0  0  0  0
   -1.8030   -1.5950   -4.1430 H   0  0  0  0  0  0  0  0  0  0  0  0
    0.3710    3.6810   -0.5500 H   0  0  0  0  0  0  0  0  0  0  0  0
   -0.9170    2.6690   -1.3030 H   0  0  0  0  0  0  0  0  0  0  0  0
    0.4780    0.6040   -0.4330 H   0  0  0  0  0  0  0  0  0  0  0  0
    1.7920    1.7900   -0.1370 H   0  0  0  0  0  0  0  0  0  0  0  0
   -3.0650    2.7480    2.7310 H   0  0  0  0  0  0  0  0  0  0  0  0
   -1.3650    2.2880    3.1740 H   0  0  0  0  0  0  0  0  0  0  0  0
   -2.7390    4.8680    1.5360 H   0  0  0  0  0  0  0  0  0  0  0  0
   -1.7540    4.7300    0.0760 H   0  0  0  0  0  0  0  0  0  0  0  0
   -0.3930    1.6500    1.3770 H   0  0  0  0  0  0  0  0  0  0  0  0
    3.6860    1.2700   -3.7220 H   0  0  0  0  0  0  0  0  0  0  0  0
    2.2850   -0.5410   -1.7470 H   0  0  0  0  0  0  0  0  0  0  0  0
    1.8360    2.3750   -2.5590 H   0  0  0  0  0  0  0  0  0  0  0  0
    0.4300    1.3720   -2.8810 H   0  0  0  0  0  0  0  0  0  0  0  0
    6.8970    0.0530   -1.0870 H   0  0  0  0  0  0  0  0  0  0  0  0
    4.3710   -1.3430   -1.1950 H   0  0  0  0  0  0  0  0  0  0  0  0
    4.1700    1.4160    0.2180 H   0  0  0  0  0  0  0  0  0  0  0  0
    4.4750   -0.0210    1.2310 H   0  0  0  0  0  0  0  0  0  0  0  0
    3.0010    0.0260    0.2710 H   0  0  0  0  0  0  0  0  0  0  0  0
   -4.2580    3.7800   -0.1130 O   0  0  0  0  0  0  0  0  0  0  0  0
   -6.5660    3.8430   -0.7550 C   0  0  0  0  0  0  0  0  0  0  0  0
   -5.1360    3.3420   -0.8070 C   0  0  0  0  0  0  0  0  0  0  0  0
    5.9090   -2.1600    0.9380 O   0  0  0  0  0  0  0  0  0  0  0  0
    8.1620   -1.4510    0.5300 C   0  0  0  0  0  0  0  0  0  0  0  0
    6.6590   -1.4430    0.3250 C   0  0  0  0  0  0  0  0  0  0  0  0
    1.6160   -0.3510    4.3640 N   0  0  0  0  0  0  0  0  0  0  0  0
   -1.0400   -2.0690    5.7930 C   0  0  0  0  0  0  0  0  0  0  0  0
   -1.1540   -3.4460    3.8530 O   0  0  0  0  0  0  0  0  0  0  0  0
    0.9860    0.3100    2.3200 O   0  0  0  0  0  0  0  0  0  0  0  0
   -1.0920   -1.4250    2.1500 N   0  0  0  0  0  0  0  0  0  0  0  0
    0.7610   -0.3400    3.3090 C   0  0  0  0  0  0  0  0  0  0  0  0
   -0.5250   -1.1480    3.4760 C   0  0  2  0  0  0  0  0  0  0  0  0
   -0.4480   -2.3630    4.4150 C   0  0  1  0  0  0  0  0  0  0  0  0
   -3.4590   -1.7320    0.6620 O   0  0  0  0  0  0  0  0  0  0  0  0
    0.2630   -3.1620    1.6590 O   0  0  0  0  0  0  0  0  0  0  0  0
   -0.5680   -3.3770   -0.9350 N   0  0  0  0  0  0  0  0  0  0  0  0
   -0.6140   -2.4050    1.3280 C   0  0  0  0  0  0  0  0  0  0  0  0
   -1.2900   -2.4590   -0.0370 C   0  0  2  0  0  0  0  0  0  0  0  0
   -2.7620   -2.8420    0.1290 C   0  0  0  0  0  0  0  0  0  0  0  0
   -4.9110    2.3540   -1.7260 N   0  0  0  0  0  0  0  0  0  0  0  0
   -3.5610    1.8400   -1.9510 C   0  0  0  0  0  0  0  0  0  0  0  0
   -3.4860    0.4700   -2.6490 C   0  0  0  0  0  0  0  0  0  0  0  0
   -1.9910    0.1340   -2.8130 C   0  0  0  0  0  0  0  0  0  0  0  0
    0.5640   -3.9080   -2.7960 O   0  0  0  0  0  0  0  0  0  0  0  0
    0.7270   -1.3610   -3.8020 N   0  0  0  0  0  0  0  0  0  0  0  0
   -0.0170   -3.0690   -2.1540 C   0  0  0  0  0  0  0  0  0  0  0  0
   -0.1640   -1.6310   -2.6630 C   0  0  2  0  0  0  0  0  0  0  0  0
   -1.6300   -1.3340   -3.0740 C   0  0  0  0  0  0  0  0  0  0  0  0
   -0.1300    2.6870   -0.5190 C   0  0  0  0  0  0  0  0  0  0  0  0
    0.9060    1.5750   -0.7760 C   0  0  0  0  0  0  0  0  0  0  0  0
   -2.0420    2.7220    2.5010 N   0  0  0  0  0  0  0  0  0  0  0  0
   -2.0910    4.3170    0.9570 N   0  0  0  0  0  0  0  0  0  0  0  0
   -1.6290    3.1720    1.3880 C   0  0  0  0  0  0  0  0  0  0  0  0
   -0.7510    2.4600    0.8090 N   0  0  0  0  0  0  0  0  0  0  0  0
    2.3630   -0.3040   -4.8940 O   0  0  0  0  0  0  0  0  0  0  0  0
    3.5990    0.7360   -2.8560 N   0  0  0  0  0  0  0  0  0  0  0  0
    1.7950   -0.5020   -3.8480 C   0  0  0  0  0  0  0  0  0  0  0  0
    2.2530    0.2130   -2.5590 C   0  0  2  0  0  0  0  0  0  0  0  0
    1.3390    1.4270   -2.2440 C   0  0  0  0  0  0  0  0  0  0  0  0
    5.7880    1.0420   -2.6140 O   0  0  0  0  0  0  0  0  0  0  0  0
    6.2210   -0.5380   -0.6010 N   0  0  0  0  0  0  0  0  0  0  0  0
    4.7790    0.5290   -2.1970 C   0  0  0  0  0  0  0  0  0  0  0  0
    4.8000   -0.3460   -0.9380 C   0  0  2  0  0  0  0  0  0  0  0  0
  1 58  1  0  0  0  0
  2 57  1  0  0  0  0
  3 57  1  0  0  0  0
  4 55  1  0  0  0  0
  5 55  1  0  0  0  0
  6 55  1  0  0  0  0
  7 52  1  0  0  0  0
  8 52  1  0  0  0  0
  9 52  1  0  0  0  0
 10 48  1  0  0  0  0
 10 49  1  0  0  0  0
 10 50  1  0  0  0  0
 10 94  1  0  0  0  0
 11 58  1  0  0  0  0
 12 58  1  0  0  0  0
 13 59  1  0  0  0  0
 14 61  1  0  0  0  0
 17 65  1  0  0  0  0
 18 67  1  0  0  0  0
 20 70  1  0  0  0  0
 21 70  1  0  0  0  0
 22 71  1  0  0  0  0
 23 72  1  0  0  0  0
 24 72  1  0  0  0  0
 25 73  1  0  0  0  0
 26 73  1  0  0  0  0
 27 74  1  0  0  0  0
 28 74  1  0  0  0  0
 29 76  1  0  0  0  0
 31 79  1  0  0  0  0
 32 79  1  0  0  0  0
 33 80  1  0  0  0  0
 34 80  1  0  0  0  0
 35 81  1  0  0  0  0
 36 81  1  0  0  0  0
 37 82  1  0  0  0  0
 38 82  1  0  0  0  0
 39 83  1  0  0  0  0
 40 83  1  0  0  0  0
 41 85  1  0  0  0  0
 42 87  1  0  0  0  0
 44 90  1  0  0  0  0
 45 90  1  0  0  0  0
 46 92  1  0  0  0  0
 51 53  2  0  0  0  0
 52 53  1  0  0  0  0
 53 71  1  0  0  0  0
 54 56  2  0  0  0  0
 55 56  1  0  0  0  0
 56 92  1  0  0  0  0
 57 62  1  0  0  0  0
 58 64  1  0  0  0  0
 59 64  1  0  0  0  0
 60 62  2  0  0  0  0
 61 63  1  0  0  0  0
 61 68  1  0  0  0  0
 62 63  1  0  0  0  0
 63 15  1  1  0  0  0
 63 64  1  0  0  0  0
 64 16  1  1  0  0  0
 65 70  1  0  0  0  0
 66 68  2  0  0  0  0
 67 77  1  0  0  0  0
 67 69  1  0  0  0  0
 68 69  1  0  0  0  0
 69 19  1  6  0  0  0
 69 70  1  0  0  0  0
 71 72  1  0  0  0  0
 72 73  1  0  0  0  0
 73 74  1  0  0  0  0
 74 79  1  0  0  0  0
 75 77  2  0  0  0  0
 76 88  1  0  0  0  0
 76 78  1  0  0  0  0
 77 78  1  0  0  0  0
 78 30  1  1  0  0  0
 78 79  1  0  0  0  0
 80 85  1  0  0  0  0
 80 81  1  0  0  0  0
 81 90  1  0  0  0  0
 82 84  2  0  0  0  0
 83 84  1  0  0  0  0
 84 85  1  0  0  0  0
 86 88  2  0  0  0  0
 87 93  1  0  0  0  0
 87 89  1  0  0  0  0
 88 89  1  0  0  0  0
 89 43  1  1  0  0  0
 89 90  1  0  0  0  0
 91 93  2  0  0  0  0
 92 94  1  0  0  0  0
 93 94  1  0  0  0  0
 94 47  1  6  0  0  0
M  END
