pdbs/k9mtr.pdb
 OpenBabel07281513493D

110109  0  0  1  0  0  0  0  0999 V2000
    5.3210   -0.2480    2.4530 C   0  0  0  0  0  0  0  0  0  0  0  0
    6.1460   -1.1470    1.5190 C   0  0  1  0  0  0  0  0  0  0  0  0
    6.6040   -0.4260    0.2480 C   0  0  0  0  0  0  0  0  0  0  0  0
    7.3700   -1.5900    2.2110 N   0  0  0  0  0  0  0  0  0  0  0  0
    7.7730   -0.2060    0.0480 O   0  0  0  0  0  0  0  0  0  0  0  0
    3.5660    1.1850   -0.4980 C   0  0  0  0  0  0  0  0  0  0  0  0
    4.2040   -0.2200   -0.6320 C   0  0  1  0  0  0  0  0  0  0  0  0
    3.8730   -0.8700   -1.9840 C   0  0  0  0  0  0  0  0  0  0  0  0
    5.6670   -0.0360   -0.6690 N   0  0  0  0  0  0  0  0  0  0  0  0
    4.6350   -0.7760   -2.9150 O   0  0  0  0  0  0  0  0  0  0  0  0
    1.1190    2.8790    1.9620 N   0  0  0  0  0  0  0  0  0  0  0  0
    0.0060    3.4870    2.0430 C   0  0  0  0  0  0  0  0  0  0  0  0
   -0.1770    4.6710    1.5240 N   0  0  0  0  0  0  0  0  0  0  0  0
   -0.9290    2.9240    2.6930 N   0  0  0  0  0  0  0  0  0  0  0  0
    2.6740    1.4210    0.7350 C   0  0  0  0  0  0  0  0  0  0  0  0
    1.9170    2.7610    0.7170 C   0  0  0  0  0  0  0  0  0  0  0  0
    0.3750   -0.9680   -1.9600 C   0  0  0  0  0  0  0  0  0  0  0  0
    1.5570   -1.6300   -1.2170 C   0  0  1  0  0  0  0  0  0  0  0  0
    1.2480   -3.0850   -0.8270 C   0  0  0  0  0  0  0  0  0  0  0  0
    2.7100   -1.5840   -2.1290 N   0  0  0  0  0  0  0  0  0  0  0  0
    1.8020   -4.0100   -1.3680 O   0  0  0  0  0  0  0  0  0  0  0  0
    0.0930    0.4870   -1.5310 C   0  0  0  0  0  0  0  0  0  0  0  0
   -1.0650    1.1030   -2.3230 C   0  0  0  0  0  0  0  0  0  0  0  0
   -1.8730    2.1640   -1.5500 C   0  0  0  0  0  0  0  0  0  0  0  0
   -2.9600    2.8080   -2.3020 N   0  0  0  0  0  0  0  0  0  0  0  0
   -1.9740   -2.4410    0.5750 C   0  0  0  0  0  0  0  0  0  0  0  0
   -0.4840   -2.2860    0.8610 C   0  0  1  0  0  0  0  0  0  0  0  0
   -0.2440   -2.2930    2.3640 C   0  0  0  0  0  0  0  0  0  0  0  0
    0.3260   -3.3080    0.1690 N   0  0  0  0  0  0  0  0  0  0  0  0
    0.3120   -3.1960    2.9340 O   0  0  0  0  0  0  0  0  0  0  0  0
   -2.6430   -1.2430    0.9340 O   0  0  0  0  0  0  0  0  0  0  0  0
   -0.8440   -2.0240    5.3880 C   0  0  2  0  0  0  0  0  0  0  0  0
   -0.4590   -0.8930    4.4200 C   0  0  1  0  0  0  0  0  0  0  0  0
    0.9520   -0.3110    4.5590 C   0  0  0  0  0  0  0  0  0  0  0  0
   -0.7260   -1.1870    3.0030 N   0  0  0  0  0  0  0  0  0  0  0  0
    1.5040    0.2740    3.6620 O   0  0  0  0  0  0  0  0  0  0  0  0
   -1.5770   -3.0220    4.7140 O   0  0  0  0  0  0  0  0  0  0  0  0
   -1.7020   -1.5240    6.5500 C   0  0  0  0  0  0  0  0  0  0  0  0
    1.5440   -0.4450    5.7760 N   0  0  0  0  0  0  0  0  0  0  0  0
    7.3570   -2.4670    3.2610 C   0  0  0  0  0  0  0  0  0  0  0  0
    8.7250   -2.7410    3.8600 C   0  0  0  0  0  0  0  0  0  0  0  0
    6.3390   -2.9590    3.6810 O   0  0  0  0  0  0  0  0  0  0  0  0
   -3.8540    1.9430   -3.0840 C   0  0  2  0  0  0  0  0  0  0  0  0
   -5.2240    2.9880   -3.7200 S   0  0  0  0  0  0  0  0  0  0  0  0
   -5.6990    1.9590   -5.1480 C   0  0  0  0  0  0  0  0  0  0  0  0
   -7.0980    2.2870   -5.6850 C   0  0  0  0  0  0  0  0  0  0  0  0
   -7.3790    1.2770   -6.7170 N   0  0  0  0  0  0  0  0  0  0  0  0
   -8.4580    1.3270   -7.5560 C   0  0  0  0  0  0  0  0  0  0  0  0
   -8.5260    0.1680   -8.5370 C   0  0  0  0  0  0  0  0  0  0  0  0
   -4.4520    0.7840   -2.2790 C   0  0  0  0  0  0  0  0  0  0  0  0
   -3.0730    1.4390   -4.1580 O   0  0  0  0  0  0  0  0  0  0  0  0
   -9.2800    2.2100   -7.5260 O   0  0  0  0  0  0  0  0  0  0  0  0
    4.2300   -0.4150    2.3140 H   0  0  0  0  0  0  0  0  0  0  0  0
    5.5100   -0.4690    3.5260 H   0  0  0  0  0  0  0  0  0  0  0  0
    5.5570    0.8320    2.3100 H   0  0  0  0  0  0  0  0  0  0  0  0
    5.5780   -2.0550    1.2090 H   0  0  0  0  0  0  0  0  0  0  0  0
    8.2510   -1.1970    1.8830 H   0  0  0  0  0  0  0  0  0  0  0  0
    3.0120    1.4350   -1.4290 H   0  0  0  0  0  0  0  0  0  0  0  0
    4.3710    1.9570   -0.4610 H   0  0  0  0  0  0  0  0  0  0  0  0
    3.9090   -0.9280    0.1670 H   0  0  0  0  0  0  0  0  0  0  0  0
    6.0370    0.3750   -1.5290 H   0  0  0  0  0  0  0  0  0  0  0  0
    1.3590    2.2370    2.7610 H   0  0  0  0  0  0  0  0  0  0  0  0
    0.5760    5.1470    1.0110 H   0  0  0  0  0  0  0  0  0  0  0  0
   -1.0820    5.1510    1.6110 H   0  0  0  0  0  0  0  0  0  0  0  0
   -0.7020    2.2930    3.5010 H   0  0  0  0  0  0  0  0  0  0  0  0
   -1.9330    3.1960    2.5380 H   0  0  0  0  0  0  0  0  0  0  0  0
    3.3040    1.4260    1.6540 H   0  0  0  0  0  0  0  0  0  0  0  0
    1.9360    0.5980    0.8600 H   0  0  0  0  0  0  0  0  0  0  0  0
    1.2640    2.8440   -0.1800 H   0  0  0  0  0  0  0  0  0  0  0  0
    2.6570    3.5930    0.6740 H   0  0  0  0  0  0  0  0  0  0  0  0
    0.5570   -1.0030   -3.0620 H   0  0  0  0  0  0  0  0  0  0  0  0
   -0.5440   -1.5810   -1.8310 H   0  0  0  0  0  0  0  0  0  0  0  0
    1.7970   -1.1150   -0.2680 H   0  0  0  0  0  0  0  0  0  0  0  0
    2.6330   -2.1150   -2.9950 H   0  0  0  0  0  0  0  0  0  0  0  0
    0.9980    1.0970   -1.7250 H   0  0  0  0  0  0  0  0  0  0  0  0
   -0.1370    0.5590   -0.4430 H   0  0  0  0  0  0  0  0  0  0  0  0
   -1.7330    0.2440   -2.5470 H   0  0  0  0  0  0  0  0  0  0  0  0
   -0.6880    1.4810   -3.3030 H   0  0  0  0  0  0  0  0  0  0  0  0
   -1.1890    2.9670   -1.1890 H   0  0  0  0  0  0  0  0  0  0  0  0
   -2.3150    1.6930   -0.6440 H   0  0  0  0  0  0  0  0  0  0  0  0
   -3.5550    3.3420   -1.6170 H   0  0  0  0  0  0  0  0  0  0  0  0
   -2.1540   -2.6240   -0.5050 H   0  0  0  0  0  0  0  0  0  0  0  0
   -2.3950   -3.2850    1.1590 H   0  0  0  0  0  0  0  0  0  0  0  0
   -0.1970   -1.2660    0.5370 H   0  0  0  0  0  0  0  0  0  0  0  0
    0.2110   -4.2830    0.4500 H   0  0  0  0  0  0  0  0  0  0  0  0
   -3.5770   -1.2700    0.7130 H   0  0  0  0  0  0  0  0  0  0  0  0
    0.0670   -2.5370    5.7710 H   0  0  0  0  0  0  0  0  0  0  0  0
   -1.1160   -0.0130    4.6360 H   0  0  0  0  0  0  0  0  0  0  0  0
   -1.2680   -0.5190    2.4540 H   0  0  0  0  0  0  0  0  0  0  0  0
   -0.9600   -3.6020    4.2560 H   0  0  0  0  0  0  0  0  0  0  0  0
   -1.1720   -0.7380    7.1330 H   0  0  0  0  0  0  0  0  0  0  0  0
   -1.9590   -2.3540    7.2480 H   0  0  0  0  0  0  0  0  0  0  0  0
   -2.6620   -1.0910    6.1840 H   0  0  0  0  0  0  0  0  0  0  0  0
    1.0930   -0.9240    6.5390 H   0  0  0  0  0  0  0  0  0  0  0  0
    2.4720   -0.0570    5.8870 H   0  0  0  0  0  0  0  0  0  0  0  0
    9.5350   -2.2470    3.2750 H   0  0  0  0  0  0  0  0  0  0  0  0
    8.7770   -2.3500    4.9020 H   0  0  0  0  0  0  0  0  0  0  0  0
    8.9360   -3.8350    3.8810 H   0  0  0  0  0  0  0  0  0  0  0  0
   -4.9630    2.1000   -5.9770 H   0  0  0  0  0  0  0  0  0  0  0  0
   -5.6980    0.8840   -4.8500 H   0  0  0  0  0  0  0  0  0  0  0  0
   -7.8550    2.2170   -4.8690 H   0  0  0  0  0  0  0  0  0  0  0  0
   -7.1160    3.3100   -6.1240 H   0  0  0  0  0  0  0  0  0  0  0  0
   -6.7460    0.4810   -6.8010 H   0  0  0  0  0  0  0  0  0  0  0  0
   -7.7240   -0.5780   -8.3370 H   0  0  0  0  0  0  0  0  0  0  0  0
   -9.5050   -0.3570   -8.4570 H   0  0  0  0  0  0  0  0  0  0  0  0
   -8.3940    0.5390   -9.5790 H   0  0  0  0  0  0  0  0  0  0  0  0
   -4.9830    0.0560   -2.9320 H   0  0  0  0  0  0  0  0  0  0  0  0
   -3.6960    0.1830   -1.7280 H   0  0  0  0  0  0  0  0  0  0  0  0
   -5.1730    1.1570   -1.5140 H   0  0  0  0  0  0  0  0  0  0  0  0
   -3.5940    1.3870   -4.9570 H   0  0  0  0  0  0  0  0  0  0  0  0
  1  2  1  0  0  0  0
  1 53  1  0  0  0  0
  1 54  1  0  0  0  0
  1 55  1  0  0  0  0
  2  3  1  0  0  0  0
  2  4  1  0  0  0  0
  2 56  1  6  0  0  0
  3  9  1  0  0  0  0
  3  5  2  0  0  0  0
  4 40  1  0  0  0  0
  4 57  1  0  0  0  0
  6 15  1  0  0  0  0
  6  7  1  0  0  0  0
  6 58  1  0  0  0  0
  6 59  1  0  0  0  0
  7  9  1  0  0  0  0
  7  8  1  0  0  0  0
  7 60  1  1  0  0  0
  8 20  1  0  0  0  0
  8 10  2  0  0  0  0
  9 61  1  0  0  0  0
 11 16  1  0  0  0  0
 11 12  1  0  0  0  0
 11 62  1  0  0  0  0
 12 13  2  0  0  0  0
 12 14  1  0  0  0  0
 13 63  1  0  0  0  0
 13 64  1  0  0  0  0
 14 65  1  0  0  0  0
 14 66  1  0  0  0  0
 15 16  1  0  0  0  0
 15 67  1  0  0  0  0
 15 68  1  0  0  0  0
 16 69  1  0  0  0  0
 16 70  1  0  0  0  0
 17 18  1  0  0  0  0
 17 22  1  0  0  0  0
 17 71  1  0  0  0  0
 17 72  1  0  0  0  0
 18 20  1  0  0  0  0
 18 19  1  0  0  0  0
 18 73  1  1  0  0  0
 19 29  1  0  0  0  0
 19 21  2  0  0  0  0
 20 74  1  0  0  0  0
 22 23  1  0  0  0  0
 22 75  1  0  0  0  0
 22 76  1  0  0  0  0
 23 24  1  0  0  0  0
 23 77  1  0  0  0  0
 23 78  1  0  0  0  0
 24 25  1  0  0  0  0
 24 79  1  0  0  0  0
 24 80  1  0  0  0  0
 25 81  1  0  0  0  0
 26 31  1  0  0  0  0
 26 27  1  0  0  0  0
 26 82  1  0  0  0  0
 26 83  1  0  0  0  0
 27 29  1  0  0  0  0
 27 28  1  0  0  0  0
 27 84  1  6  0  0  0
 28 35  1  0  0  0  0
 28 30  2  0  0  0  0
 29 85  1  0  0  0  0
 31 86  1  0  0  0  0
 32 33  1  0  0  0  0
 32 38  1  0  0  0  0
 32 37  1  0  0  0  0
 32 87  1  1  0  0  0
 33 34  1  0  0  0  0
 33 35  1  0  0  0  0
 33 88  1  1  0  0  0
 34 36  2  0  0  0  0
 34 39  1  0  0  0  0
 35 89  1  0  0  0  0
 37 90  1  0  0  0  0
 38 91  1  0  0  0  0
 38 92  1  0  0  0  0
 38 93  1  0  0  0  0
 39 94  1  0  0  0  0
 39 95  1  0  0  0  0
 40 41  1  0  0  0  0
 40 42  2  0  0  0  0
 41 96  1  0  0  0  0
 41 97  1  0  0  0  0
 41 98  1  0  0  0  0
 43 25  1  1  0  0  0
 43 44  1  0  0  0  0
 43 50  1  0  0  0  0
 43 51  1  0  0  0  0
 44 45  1  0  0  0  0
 45 46  1  0  0  0  0
 45 99  1  0  0  0  0
 45100  1  0  0  0  0
 46 47  1  0  0  0  0
 46101  1  0  0  0  0
 46102  1  0  0  0  0
 47 48  1  0  0  0  0
 47103  1  0  0  0  0
 48 49  1  0  0  0  0
 48 52  2  0  0  0  0
 49104  1  0  0  0  0
 49105  1  0  0  0  0
 49106  1  0  0  0  0
 50107  1  0  0  0  0
 50108  1  0  0  0  0
 50109  1  0  0  0  0
 51110  1  0  0  0  0
M  END
