pdbs/k9spmd.pdb
 OpenBabel07281513493D

 73 76  0  0  1  0  0  0  0  0999 V2000
    0.5790   -0.9890   -6.3130 C   0  0  0  0  0  0  0  0  0  0  0  0
    1.0470    0.3210   -5.6630 C   0  0  1  0  0  0  0  0  0  0  0  0
    1.4120    0.0790   -4.2130 C   0  0  0  0  0  0  0  0  0  0  0  0
    2.2110    0.8640   -6.3760 N   0  0  0  0  0  0  0  0  0  0  0  0
    2.5840   -0.3320   -3.9750 N   0  0  0  0  0  0  0  0  0  0  0  0
    1.9980   -0.3720   -1.7980 C   0  0  0  0  0  0  0  0  0  0  0  0
    0.7630    0.0680   -2.1150 C   0  0  0  0  0  0  0  0  0  0  0  0
   -0.2080    0.2700   -1.1910 C   0  0  0  0  0  0  0  0  0  0  0  0
    0.5170    0.2850   -3.3410 N   0  0  0  0  0  0  0  0  0  0  0  0
   -1.3420    0.7090   -1.5540 N   0  0  0  0  0  0  0  0  0  0  0  0
    4.2450   -2.3220   -1.7720 N   0  0  0  0  0  0  0  0  0  0  0  0
    4.9650   -2.5550   -0.7540 C   0  0  0  0  0  0  0  0  0  0  0  0
    6.1650   -3.0540   -0.8770 N   0  0  0  0  0  0  0  0  0  0  0  0
    4.4780   -2.2870    0.3840 N   0  0  0  0  0  0  0  0  0  0  0  0
    2.9010   -0.5610   -2.7730 C   0  0  0  0  0  0  0  0  0  0  0  0
    4.3070   -1.0470   -2.5120 C   0  0  0  0  0  0  0  0  0  0  0  0
   -2.0480    0.6190    0.5850 C   0  0  0  0  0  0  0  0  0  0  0  0
   -0.8370    0.1540    0.9460 C   0  0  0  0  0  0  0  0  0  0  0  0
   -0.5220   -0.1680    2.2240 C   0  0  0  0  0  0  0  0  0  0  0  0
    0.0290    0.0110    0.0300 N   0  0  0  0  0  0  0  0  0  0  0  0
    0.6400   -0.6000    2.4930 N   0  0  0  0  0  0  0  0  0  0  0  0
   -2.2640    0.8950   -0.7090 C   0  0  0  0  0  0  0  0  0  0  0  0
   -3.5600    1.4280   -1.2840 C   0  0  0  0  0  0  0  0  0  0  0  0
   -4.4590    2.1930   -0.3030 C   0  0  0  0  0  0  0  0  0  0  0  0
   -5.5850    2.7590   -1.1230 N   0  0  0  0  0  0  0  0  0  0  0  0
    0.0370   -0.8000    4.7000 C   0  0  0  0  0  0  0  0  0  0  0  0
   -1.1850   -0.3350    4.3520 C   0  0  0  0  0  0  0  0  0  0  0  0
   -2.2080   -0.1640    5.2260 C   0  0  0  0  0  0  0  0  0  0  0  0
   -1.3970   -0.0410    3.1340 N   0  0  0  0  0  0  0  0  0  0  0  0
   -3.3340    0.2770    4.8380 N   0  0  0  0  0  0  0  0  0  0  0  0
    0.4250   -1.1540    5.9600 O   0  0  0  0  0  0  0  0  0  0  0  0
   -4.1320    0.1260    6.9920 C   0  0  0  0  0  0  0  0  0  0  0  0
   -2.9160   -0.3370    7.3390 C   0  0  0  0  0  0  0  0  0  0  0  0
   -2.5840   -0.6920    8.6130 C   0  0  0  0  0  0  0  0  0  0  0  0
   -2.0290   -0.4550    6.4440 N   0  0  0  0  0  0  0  0  0  0  0  0
   -3.2820   -0.6500    9.5950 O   0  0  0  0  0  0  0  0  0  0  0  0
   -4.2600    0.4160    5.6860 C   0  0  0  0  0  0  0  0  0  0  0  0
   -5.1780    0.2990    7.8440 O   0  0  0  0  0  0  0  0  0  0  0  0
   -1.3040   -1.1380    8.7350 N   0  0  0  0  0  0  0  0  0  0  0  0
    2.1140    1.8270   -7.3430 C   0  0  0  0  0  0  0  0  0  0  0  0
    3.4360    2.1790   -7.9950 C   0  0  0  0  0  0  0  0  0  0  0  0
    1.0690    2.3470   -7.6450 O   0  0  0  0  0  0  0  0  0  0  0  0
    0.9120   -0.9040    3.6870 C   0  0  0  0  0  0  0  0  0  0  0  0
    0.2890   -0.8230   -7.3760 H   0  0  0  0  0  0  0  0  0  0  0  0
    1.3830   -1.7590   -6.2980 H   0  0  0  0  0  0  0  0  0  0  0  0
   -0.3070   -1.4040   -5.7800 H   0  0  0  0  0  0  0  0  0  0  0  0
    0.2070    1.0570   -5.6810 H   0  0  0  0  0  0  0  0  0  0  0  0
    3.1240    0.4570   -6.1730 H   0  0  0  0  0  0  0  0  0  0  0  0
    2.3050   -0.5820   -0.7630 H   0  0  0  0  0  0  0  0  0  0  0  0
    3.4550   -2.9850   -1.9670 H   0  0  0  0  0  0  0  0  0  0  0  0
    6.5510   -3.2650   -1.8060 H   0  0  0  0  0  0  0  0  0  0  0  0
    6.7470   -3.2380   -0.0490 H   0  0  0  0  0  0  0  0  0  0  0  0
    3.6560   -1.6390    0.4660 H   0  0  0  0  0  0  0  0  0  0  0  0
    4.8450   -2.7550    1.2500 H   0  0  0  0  0  0  0  0  0  0  0  0
    4.8600   -1.2230   -3.4630 H   0  0  0  0  0  0  0  0  0  0  0  0
    4.8570   -0.2690   -1.9320 H   0  0  0  0  0  0  0  0  0  0  0  0
   -2.8600    0.7740    1.3100 H   0  0  0  0  0  0  0  0  0  0  0  0
   -4.1250    0.5640   -1.7090 H   0  0  0  0  0  0  0  0  0  0  0  0
   -3.3160    2.1100   -2.1350 H   0  0  0  0  0  0  0  0  0  0  0  0
   -3.9090    3.0320    0.1830 H   0  0  0  0  0  0  0  0  0  0  0  0
   -4.8870    1.5260    0.4790 H   0  0  0  0  0  0  0  0  0  0  0  0
   -6.2400    3.2850   -0.5010 H   0  0  0  0  0  0  0  0  0  0  0  0
   -6.1000    1.9800   -1.5910 H   0  0  0  0  0  0  0  0  0  0  0  0
   -5.1990    3.4050   -1.8480 H   0  0  0  0  0  0  0  0  0  0  0  0
    1.3520   -1.4440    5.9420 H   0  0  0  0  0  0  0  0  0  0  0  0
   -5.2190    0.8010    5.3000 H   0  0  0  0  0  0  0  0  0  0  0  0
   -5.9510    0.6030    7.3420 H   0  0  0  0  0  0  0  0  0  0  0  0
   -0.6950   -1.1830    7.9250 H   0  0  0  0  0  0  0  0  0  0  0  0
   -0.9880   -1.4190    9.6510 H   0  0  0  0  0  0  0  0  0  0  0  0
    4.1450    2.5780   -7.2340 H   0  0  0  0  0  0  0  0  0  0  0  0
    3.8840    1.2750   -8.4670 H   0  0  0  0  0  0  0  0  0  0  0  0
    3.3050    2.9500   -8.7870 H   0  0  0  0  0  0  0  0  0  0  0  0
    1.9340   -1.2730    3.8740 H   0  0  0  0  0  0  0  0  0  0  0  0
  1  2  1  0  0  0  0
  1 44  1  0  0  0  0
  1 45  1  0  0  0  0
  1 46  1  0  0  0  0
  2  3  1  0  0  0  0
  2  4  1  0  0  0  0
  2 47  1  6  0  0  0
  3  5  2  0  0  0  0
  3  9  1  0  0  0  0
  4 40  1  0  0  0  0
  4 48  1  0  0  0  0
  5 15  1  0  0  0  0
  6  7  1  0  0  0  0
  6 49  1  0  0  0  0
  6 15  2  0  0  0  0
  7  8  1  0  0  0  0
  7  9  2  0  0  0  0
  8 20  2  0  0  0  0
  8 10  1  0  0  0  0
 10 22  2  0  0  0  0
 11 12  1  0  0  0  0
 11 16  1  0  0  0  0
 11 50  1  0  0  0  0
 12 14  2  0  0  0  0
 12 13  1  0  0  0  0
 13 51  1  0  0  0  0
 13 52  1  0  0  0  0
 14 53  1  0  0  0  0
 14 54  1  0  0  0  0
 15 16  1  0  0  0  0
 16 55  1  0  0  0  0
 16 56  1  0  0  0  0
 17 22  1  0  0  0  0
 17 18  2  0  0  0  0
 17 57  1  0  0  0  0
 18 20  1  0  0  0  0
 18 19  1  0  0  0  0
 19 29  2  0  0  0  0
 19 21  1  0  0  0  0
 21 43  2  0  0  0  0
 22 23  1  0  0  0  0
 23 24  1  0  0  0  0
 23 58  1  0  0  0  0
 23 59  1  0  0  0  0
 24 25  1  0  0  0  0
 24 61  1  0  0  0  0
 24 60  1  0  0  0  0
 25 62  1  0  0  0  0
 25 64  1  0  0  0  0
 25 63  1  0  0  0  0
 26 43  1  0  0  0  0
 26 27  2  0  0  0  0
 26 31  1  0  0  0  0
 27 29  1  0  0  0  0
 27 28  1  0  0  0  0
 28 35  2  0  0  0  0
 28 30  1  0  0  0  0
 30 37  2  0  0  0  0
 31 65  1  0  0  0  0
 32 38  1  0  0  0  0
 32 37  1  0  0  0  0
 32 33  2  0  0  0  0
 33 35  1  0  0  0  0
 33 34  1  0  0  0  0
 34 39  1  0  0  0  0
 34 36  2  0  0  0  0
 37 66  1  0  0  0  0
 38 67  1  0  0  0  0
 39 68  1  0  0  0  0
 39 69  1  0  0  0  0
 40 42  2  0  0  0  0
 40 41  1  0  0  0  0
 41 70  1  0  0  0  0
 41 71  1  0  0  0  0
 41 72  1  0  0  0  0
 43 73  1  0  0  0  0
M  END
