pdbs/nce.pdb
 OpenBabel07211501453D

 30 31  0  0  0  0  0  0  0  0999 V2000
    0.2480   -0.3280    0.0340 C   0  0  0  0  0  0  0  0  0  0  0  0
   -0.6790   -1.3020    0.1810 C   0  0  0  0  0  0  0  0  0  0  0  0
    1.6040   -0.4850   -0.0340 C   0  0  0  0  0  0  0  0  0  0  0  0
    2.1240   -1.5790    0.0360 O   0  0  0  0  0  0  0  0  0  0  0  0
    2.3480    0.6520   -0.1840 C   0  0  0  0  0  0  0  0  0  0  0  0
    3.6930    0.6710   -0.2680 C   0  0  0  0  0  0  0  0  0  0  0  0
    4.4990    1.7470   -0.4150 C   0  0  0  0  0  0  0  0  0  0  0  0
    5.8350    1.5690   -0.4830 C   0  0  0  0  0  0  0  0  0  0  0  0
    6.7290    2.5700   -0.6280 C   0  0  0  0  0  0  0  0  0  0  0  0
    6.2450    3.8270   -0.7110 C   0  0  0  0  0  0  0  0  0  0  0  0
    4.9210    4.0310   -0.6470 C   0  0  0  0  0  0  0  0  0  0  0  0
    4.0580    3.0160   -0.5010 C   0  0  0  0  0  0  0  0  0  0  0  0
    8.0930    2.4050   -0.7000 O   0  0  0  0  0  0  0  0  0  0  0  0
    8.6370    1.1070   -0.6300 C   0  0  0  0  0  0  0  0  0  0  0  0
    7.0840    4.8900   -0.8590 O   0  0  0  0  0  0  0  0  0  0  0  0
    6.5580    5.7050   -0.8980 H   0  0  0  0  0  0  0  0  0  0  0  0
   -1.9790   -0.9280    0.2240 C   0  0  0  0  0  0  0  0  0  0  0  0
   -3.0040   -1.7920    0.3680 C   0  0  0  0  0  0  0  0  0  0  0  0
   -4.3250   -1.5100    0.4200 C   0  0  0  0  0  0  0  0  0  0  0  0
   -5.2100   -2.5170    0.5720 C   0  0  0  0  0  0  0  0  0  0  0  0
   -6.5480   -2.3500    0.6360 C   0  0  0  0  0  0  0  0  0  0  0  0
   -7.0220   -1.0900    0.5430 C   0  0  0  0  0  0  0  0  0  0  0  0
   -6.1620   -0.0710    0.3920 C   0  0  0  0  0  0  0  0  0  0  0  0
   -4.8380   -0.2700    0.3310 C   0  0  0  0  0  0  0  0  0  0  0  0
   -7.4640   -3.3670    0.7910 O   0  0  0  0  0  0  0  0  0  0  0  0
   -7.0090   -4.6960    0.9000 C   0  0  0  0  0  0  0  0  0  0  0  0
   -8.3590   -0.8390    0.6000 O   0  0  0  0  0  0  0  0  0  0  0  0
   -8.5050    0.1170    0.5160 H   0  0  0  0  0  0  0  0  0  0  0  0
   -0.3590   -2.6250    0.2860 O   0  0  0  0  0  0  0  0  0  0  0  0
    0.5890   -2.8030    0.2450 H   0  0  0  0  0  0  0  0  0  0  0  0
  1  2  2  0  0  0  0
  2 17  1  0  0  0  0
  2 29  1  0  0  0  0
  3  1  1  0  0  0  0
  3  4  2  0  0  0  0
  5  3  1  0  0  0  0
  6  5  2  0  0  0  0
  7  6  1  0  0  0  0
  8  7  1  0  0  0  0
  9  8  2  0  0  0  0
 10 11  2  0  0  0  0
 10  9  1  0  0  0  0
 11 12  1  0  0  0  0
 12  7  2  0  0  0  0
 13 14  1  0  0  0  0
 13  9  1  0  0  0  0
 15 10  1  0  0  0  0
 16 15  1  0  0  0  0
 17 18  2  0  0  0  0
 18 19  1  0  0  0  0
 19 20  2  0  0  0  0
 20 21  1  0  0  0  0
 21 25  1  0  0  0  0
 22 27  1  0  0  0  0
 22 21  2  0  0  0  0
 23 22  1  0  0  0  0
 24 23  2  0  0  0  0
 24 19  1  0  0  0  0
 25 26  1  0  0  0  0
 28 27  1  0  0  0  0
 30 29  1  0  0  0  0
M  END
