pdbs/ncv2.pdb
 OpenBabel07211501453D

 34 35  0  0  0  0  0  0  0  0999 V2000
    0.8540   -0.4850   -0.0690 C   0  0  0  0  0  0  0  0  0  0  0  0
    1.6410    0.5770   -0.3540 C   0  0  0  0  0  0  0  0  0  0  0  0
    1.2600   -1.7710    0.1510 C   0  0  0  0  0  0  0  0  0  0  0  0
    2.4290   -2.0930    0.1090 O   0  0  0  0  0  0  0  0  0  0  0  0
    0.2800   -2.6830    0.4220 C   0  0  0  0  0  0  0  0  0  0  0  0
    0.5090   -3.9890    0.6600 C   0  0  0  0  0  0  0  0  0  0  0  0
   -0.4780   -4.8670    0.9230 C   0  0  0  0  0  0  0  0  0  0  0  0
   -0.2500   -6.1730    1.1590 C   0  0  0  0  0  0  0  0  0  0  0  0
   -1.1600   -7.1330    1.4310 C   0  0  0  0  0  0  0  0  0  0  0  0
   -2.4850   -6.9240    1.5120 C   0  0  0  0  0  0  0  0  0  0  0  0
   -3.3150   -7.9400    1.7810 C   0  0  0  0  0  0  0  0  0  0  0  0
   -2.8830   -9.1970    1.9820 C   0  0  0  0  0  0  0  0  0  0  0  0
   -1.5540   -9.4450    1.9210 C   0  0  0  0  0  0  0  0  0  0  0  0
   -0.7480   -8.3990    1.6390 C   0  0  0  0  0  0  0  0  0  0  0  0
   -3.8170  -10.1480    2.2500 O   0  0  0  0  0  0  0  0  0  0  0  0
   -4.7000   -9.7460    2.2650 H   0  0  0  0  0  0  0  0  0  0  0  0
   -0.9370  -10.6650    2.0890 O   0  0  0  0  0  0  0  0  0  0  0  0
   -1.6890  -11.8480    2.2050 C   0  0  0  0  0  0  0  0  0  0  0  0
    1.0350    1.7710   -0.5390 C   0  0  0  0  0  0  0  0  0  0  0  0
    1.6940    2.9090   -0.8290 C   0  0  0  0  0  0  0  0  0  0  0  0
    1.0700    4.0890   -1.0110 C   0  0  0  0  0  0  0  0  0  0  0  0
    1.7310    5.2250   -1.3020 C   0  0  0  0  0  0  0  0  0  0  0  0
    1.2090    6.4540   -1.5050 C   0  0  0  0  0  0  0  0  0  0  0  0
    2.0270    7.4860   -1.7880 C   0  0  0  0  0  0  0  0  0  0  0  0
    1.6310    8.7570   -2.0150 C   0  0  0  0  0  0  0  0  0  0  0  0
    0.3040    9.0090   -1.9360 C   0  0  0  0  0  0  0  0  0  0  0  0
   -0.5300    7.9930   -1.6560 C   0  0  0  0  0  0  0  0  0  0  0  0
   -0.1020    6.7410   -1.4440 C   0  0  0  0  0  0  0  0  0  0  0  0
    2.6270    9.6700   -2.2820 O   0  0  0  0  0  0  0  0  0  0  0  0
    2.3430   11.0430   -2.3940 C   0  0  0  0  0  0  0  0  0  0  0  0
   -0.2450   10.2380   -2.1340 O   0  0  0  0  0  0  0  0  0  0  0  0
   -1.2100   10.1830   -2.0460 H   0  0  0  0  0  0  0  0  0  0  0  0
    2.9990    0.4940   -0.4610 O   0  0  0  0  0  0  0  0  0  0  0  0
    3.3480   -0.3950   -0.3150 H   0  0  0  0  0  0  0  0  0  0  0  0
  1  3  1  0  0  0  0
  2  1  2  0  0  0  0
  3  5  1  0  0  0  0
  4  3  2  0  0  0  0
  5  6  2  0  0  0  0
  6  7  1  0  0  0  0
  7  8  2  0  0  0  0
  8  9  1  0  0  0  0
  9 10  2  0  0  0  0
  9 14  1  0  0  0  0
 10 11  1  0  0  0  0
 11 12  2  0  0  0  0
 12 15  1  0  0  0  0
 13 12  1  0  0  0  0
 13 17  1  0  0  0  0
 14 13  2  0  0  0  0
 15 16  1  0  0  0  0
 17 18  1  0  0  0  0
 19  2  1  0  0  0  0
 20 19  2  0  0  0  0
 21 20  1  0  0  0  0
 22 21  2  0  0  0  0
 23 28  1  0  0  0  0
 23 22  1  0  0  0  0
 24 23  2  0  0  0  0
 25 26  2  0  0  0  0
 25 24  1  0  0  0  0
 26 27  1  0  0  0  0
 27 28  2  0  0  0  0
 29 25  1  0  0  0  0
 30 29  1  0  0  0  0
 31 32  1  0  0  0  0
 31 26  1  0  0  0  0
 33  2  1  0  0  0  0
 33 34  1  0  0  0  0
M  END
