pdbs/ncv4k.pdb
 OpenBabel07211501453D

 15 15  0  0  0  0  0  0  0  0999 V2000
    1.6610    2.3510   -0.5660 C   0  0  0  0  0  0  0  0  0  0  0  0
    2.1720    1.1810   -0.1190 C   0  0  0  0  0  0  0  0  0  0  0  0
    1.2940    0.1920    0.1510 C   0  0  0  0  0  0  0  0  0  0  0  0
   -0.0430    0.2750    0.0020 C   0  0  0  0  0  0  0  0  0  0  0  0
   -0.5120    1.4500   -0.4510 C   0  0  0  0  0  0  0  0  0  0  0  0
    0.3310    2.4550   -0.7240 C   0  0  0  0  0  0  0  0  0  0  0  0
   -0.8160   -0.7900    0.3060 C   0  0  0  0  0  0  0  0  0  0  0  0
   -2.1560   -0.8800    0.2170 C   0  0  0  0  0  0  0  0  0  0  0  0
   -2.8680   -1.9950    0.5430 C   0  0  0  0  0  0  0  0  0  0  0  0
   -4.3780   -1.8830    0.3690 C   0  0  0  0  0  0  0  0  0  0  0  0
   -2.3880   -3.0310    0.9500 O   0  0  0  0  0  0  0  0  0  0  0  0
    3.5010    0.8960    0.1080 O   0  0  0  0  0  0  0  0  0  0  0  0
    4.4910    1.8860   -0.0310 C   0  0  0  0  0  0  0  0  0  0  0  0
    2.4190    3.4370   -0.8760 O   0  0  0  0  0  0  0  0  0  0  0  0
    1.8480    4.1570   -1.1880 H   0  0  0  0  0  0  0  0  0  0  0  0
  1  2  1  0  0  0  0
  2 12  1  0  0  0  0
  2  3  2  0  0  0  0
  4  3  1  0  0  0  0
  4  7  1  0  0  0  0
  5  4  2  0  0  0  0
  6  1  2  0  0  0  0
  6  5  1  0  0  0  0
  8  7  2  0  0  0  0
  8  9  1  0  0  0  0
  9 11  2  0  0  0  0
 10  9  1  0  0  0  0
 13 12  1  0  0  0  0
 14  1  1  0  0  0  0
 15 14  1  0  0  0  0
M  END
