pdbs/nev1n.pdb
 OpenBabel07211501453D

 42 45  0  0  1  0  0  0  0  0999 V2000
   -2.9710    1.4510    3.5490 C   0  0  0  0  0  0  0  0  0  0  0  0
   -3.5570    0.2780    3.2660 C   0  0  0  0  0  0  0  0  0  0  0  0
   -2.8770   -0.7720    2.7760 C   0  0  0  0  0  0  0  0  0  0  0  0
   -1.5520   -0.6440    2.5600 C   0  0  0  0  0  0  0  0  0  0  0  0
   -0.9420    0.5240    2.8370 C   0  0  0  0  0  0  0  0  0  0  0  0
   -1.6520    1.5550    3.3240 C   0  0  0  0  0  0  0  0  0  0  0  0
   -0.7700   -1.8090    1.9920 C   0  0  0  0  0  0  0  0  0  0  0  0
    0.5560   -1.4150    1.3420 C   0  0  2  0  0  0  0  0  0  0  0  0
    1.2390   -0.2900    2.1220 C   0  0  2  0  0  0  0  0  0  0  0  0
    0.3000    0.7120    2.6490 N   0  0  0  0  0  0  0  0  0  0  0  0
    2.3400    0.3910    1.3380 C   0  0  0  0  0  0  0  0  0  0  0  0
    3.5920   -0.0960    1.3460 C   0  0  0  0  0  0  0  0  0  0  0  0
    4.5830    0.4890    0.6530 C   0  0  0  0  0  0  0  0  0  0  0  0
    4.3130    1.5880   -0.0720 C   0  0  0  0  0  0  0  0  0  0  0  0
    3.0670    2.0920   -0.1040 C   0  0  0  0  0  0  0  0  0  0  0  0
    2.0980    1.4870    0.6000 C   0  0  0  0  0  0  0  0  0  0  0  0
    0.6760    1.6630    2.8870 H   0  0  0  0  0  0  0  0  0  0  0  0
    0.4960   -1.2000   -0.0430 O   0  0  0  0  0  0  0  0  0  0  0  0
   -0.5160   -0.5320   -0.6840 C   0  0  0  0  0  0  0  0  0  0  0  0
   -1.1920    0.2670   -0.0710 O   0  0  0  0  0  0  0  0  0  0  0  0
   -0.8030   -0.7910   -1.9980 C   0  0  0  0  0  0  0  0  0  0  0  0
   -0.0770   -1.6870   -2.6910 C   0  0  0  0  0  0  0  0  0  0  0  0
   -0.3370   -1.9660   -3.9790 C   0  0  0  0  0  0  0  0  0  0  0  0
   -1.3490   -1.3330   -4.5970 C   0  0  0  0  0  0  0  0  0  0  0  0
   -2.0880   -0.4300   -3.9310 C   0  0  0  0  0  0  0  0  0  0  0  0
   -1.8070   -0.1690   -2.6440 C   0  0  0  0  0  0  0  0  0  0  0  0
    0.3990   -2.8760   -4.6730 O   0  0  0  0  0  0  0  0  0  0  0  0
    0.0470   -2.9310   -5.5770 H   0  0  0  0  0  0  0  0  0  0  0  0
   -1.6320   -1.6010   -5.8990 O   0  0  0  0  0  0  0  0  0  0  0  0
   -2.3890   -1.0590   -6.1750 H   0  0  0  0  0  0  0  0  0  0  0  0
   -3.1100    0.2050   -4.5650 O   0  0  0  0  0  0  0  0  0  0  0  0
   -3.5530    0.8130   -3.9520 H   0  0  0  0  0  0  0  0  0  0  0  0
   -3.5350   -1.9330    2.5080 O   0  0  0  0  0  0  0  0  0  0  0  0
   -4.4750   -1.8220    2.7250 H   0  0  0  0  0  0  0  0  0  0  0  0
    5.8490   -0.0070    0.6670 O   0  0  0  0  0  0  0  0  0  0  0  0
    6.4040    0.5570    0.1040 H   0  0  0  0  0  0  0  0  0  0  0  0
    2.8010    3.2000   -0.8440 O   0  0  0  0  0  0  0  0  0  0  0  0
    1.8660    3.4390   -0.7520 H   0  0  0  0  0  0  0  0  0  0  0  0
   -3.6830    2.5010    4.0410 O   0  0  0  0  0  0  0  0  0  0  0  0
   -3.0880    3.2600    4.1560 H   0  0  0  0  0  0  0  0  0  0  0  0
    5.2990    2.1980   -0.7820 O   0  0  0  0  0  0  0  0  0  0  0  0
    4.9250    2.9670   -1.2420 H   0  0  0  0  0  0  0  0  0  0  0  0
  1 39  1  0  0  0  0
  2  1  2  0  0  0  0
  3  2  1  0  0  0  0
  4  3  2  0  0  0  0
  4  5  1  0  0  0  0
  5  6  2  0  0  0  0
  6  1  1  0  0  0  0
  7  4  1  0  0  0  0
  8 18  1  6  0  0  0
  8  7  1  0  0  0  0
  8  9  1  0  0  0  0
  9 11  1  6  0  0  0
  9 10  1  0  0  0  0
 10  5  1  0  0  0  0
 10 17  1  0  0  0  0
 11 12  1  0  0  0  0
 13 35  1  0  0  0  0
 13 12  2  0  0  0  0
 14 13  1  0  0  0  0
 15 14  2  0  0  0  0
 15 16  1  0  0  0  0
 16 11  2  0  0  0  0
 19 20  2  0  0  0  0
 19 18  1  0  0  0  0
 21 19  1  0  0  0  0
 22 21  2  0  0  0  0
 23 22  1  0  0  0  0
 24 23  2  0  0  0  0
 24 25  1  0  0  0  0
 25 26  2  0  0  0  0
 26 21  1  0  0  0  0
 27 23  1  0  0  0  0
 28 27  1  0  0  0  0
 29 24  1  0  0  0  0
 30 29  1  0  0  0  0
 31 32  1  0  0  0  0
 31 25  1  0  0  0  0
 33 34  1  0  0  0  0
 33  3  1  0  0  0  0
 36 35  1  0  0  0  0
 37 38  1  0  0  0  0
 37 15  1  0  0  0  0
 39 40  1  0  0  0  0
 41 14  1  0  0  0  0
 42 41  1  0  0  0  0
M  END
