pdbs/nev2b.pdb
 OpenBabel07211501453D

 35 38  0  0  1  0  0  0  0  0999 V2000
   -2.9400   -3.6100    1.8600 C   0  0  0  0  0  0  0  0  0  0  0  0
   -1.7650   -4.1680    1.5390 C   0  0  0  0  0  0  0  0  0  0  0  0
   -0.6940   -3.4340    1.1960 C   0  0  0  0  0  0  0  0  0  0  0  0
   -0.8030   -2.0900    1.1790 C   0  0  0  0  0  0  0  0  0  0  0  0
   -1.9660   -1.4850    1.5050 C   0  0  0  0  0  0  0  0  0  0  0  0
   -3.0110   -2.2710    1.8250 C   0  0  0  0  0  0  0  0  0  0  0  0
    0.3940   -1.2480    0.7960 C   0  0  0  0  0  0  0  0  0  0  0  0
    0.2010    0.2050    1.2210 C   0  0  2  0  0  0  0  0  0  0  0  0
   -1.1960    0.6560    0.8100 C   0  0  2  0  0  0  0  0  0  0  0  0
   -2.1610   -0.1280    1.4700 O   0  0  0  0  0  0  0  0  0  0  0  0
   -1.3900    0.7410   -0.7000 C   0  0  0  0  0  0  0  0  0  0  0  0
   -0.9530    1.8240   -1.3670 C   0  0  0  0  0  0  0  0  0  0  0  0
   -1.0810    1.9520   -2.6970 C   0  0  0  0  0  0  0  0  0  0  0  0
   -1.6750    0.9670   -3.3920 C   0  0  0  0  0  0  0  0  0  0  0  0
   -2.1320   -0.1250   -2.7570 C   0  0  0  0  0  0  0  0  0  0  0  0
   -1.9850   -0.2210   -1.4260 C   0  0  0  0  0  0  0  0  0  0  0  0
    1.1530    1.0420    0.6280 O   0  0  0  0  0  0  0  0  0  0  0  0
    2.4600    1.0350    1.0540 C   0  0  0  0  0  0  0  0  0  0  0  0
    2.7730    0.3270    1.9920 O   0  0  0  0  0  0  0  0  0  0  0  0
    3.3980    1.8050    0.4220 C   0  0  0  0  0  0  0  0  0  0  0  0
    3.0430    2.5770   -0.6250 C   0  0  0  0  0  0  0  0  0  0  0  0
    3.9450    3.3410   -1.2610 C   0  0  0  0  0  0  0  0  0  0  0  0
    5.2240    3.3470   -0.8610 C   0  0  0  0  0  0  0  0  0  0  0  0
    5.5930    2.5850    0.1780 C   0  0  0  0  0  0  0  0  0  0  0  0
    4.6880    1.8210    0.8130 C   0  0  0  0  0  0  0  0  0  0  0  0
   -0.6250    3.0520   -3.3540 O   0  0  0  0  0  0  0  0  0  0  0  0
   -0.8250    2.9470   -4.2990 H   0  0  0  0  0  0  0  0  0  0  0  0
   -2.7370   -1.1160   -3.4640 O   0  0  0  0  0  0  0  0  0  0  0  0
   -3.0340   -1.8160   -2.8620 H   0  0  0  0  0  0  0  0  0  0  0  0
    0.4700   -4.0600    0.8670 O   0  0  0  0  0  0  0  0  0  0  0  0
    1.1540   -3.4070    0.6530 H   0  0  0  0  0  0  0  0  0  0  0  0
   -1.8210    1.0700   -4.7390 O   0  0  0  0  0  0  0  0  0  0  0  0
   -2.2800    0.2800   -5.0660 H   0  0  0  0  0  0  0  0  0  0  0  0
   -4.0130   -4.3760    2.1930 O   0  0  0  0  0  0  0  0  0  0  0  0
   -3.7550   -5.3120    2.1640 H   0  0  0  0  0  0  0  0  0  0  0  0
  1 34  1  0  0  0  0
  2  1  2  0  0  0  0
  3  2  1  0  0  0  0
  4  3  2  0  0  0  0
  4  5  1  0  0  0  0
  5  6  2  0  0  0  0
  6  1  1  0  0  0  0
  7  4  1  0  0  0  0
  7  8  1  0  0  0  0
  8 17  1  6  0  0  0
  9 11  1  6  0  0  0
  9  8  1  0  0  0  0
  9 10  1  0  0  0  0
 10  5  1  0  0  0  0
 12 11  1  0  0  0  0
 13 12  2  0  0  0  0
 14 15  2  0  0  0  0
 14 13  1  0  0  0  0
 15 16  1  0  0  0  0
 16 11  2  0  0  0  0
 17 18  1  0  0  0  0
 18 19  2  0  0  0  0
 20 25  1  0  0  0  0
 20 18  1  0  0  0  0
 21 20  2  0  0  0  0
 22 23  2  0  0  0  0
 22 21  1  0  0  0  0
 23 24  1  0  0  0  0
 24 25  2  0  0  0  0
 26 13  1  0  0  0  0
 27 26  1  0  0  0  0
 28 29  1  0  0  0  0
 28 15  1  0  0  0  0
 30  3  1  0  0  0  0
 31 30  1  0  0  0  0
 32 14  1  0  0  0  0
 33 32  1  0  0  0  0
 35 34  1  0  0  0  0
M  END
