pdbs/nev3f.pdb
 OpenBabel07211501453D

 33 36  0  0  1  0  0  0  0  0999 V2000
   -3.0420   -2.9990    2.3820 C   0  0  0  0  0  0  0  0  0  0  0  0
   -2.2810   -3.9750    1.8690 C   0  0  0  0  0  0  0  0  0  0  0  0
   -1.2300   -3.6700    1.0930 C   0  0  0  0  0  0  0  0  0  0  0  0
   -0.9310   -2.3850    0.8260 C   0  0  0  0  0  0  0  0  0  0  0  0
   -1.6770   -1.3840    1.3420 C   0  0  0  0  0  0  0  0  0  0  0  0
   -2.7330   -1.7240    2.1060 C   0  0  0  0  0  0  0  0  0  0  0  0
    0.2590   -2.0610   -0.0480 C   0  0  0  0  0  0  0  0  0  0  0  0
    0.7050   -0.6150    0.1860 C   0  0  2  0  0  0  0  0  0  0  0  0
   -0.5330    0.2710    0.0670 C   0  0  2  0  0  0  0  0  0  0  0  0
   -1.4450   -0.0550    1.0900 O   0  0  0  0  0  0  0  0  0  0  0  0
   -1.1540    0.3130   -1.3280 C   0  0  0  0  0  0  0  0  0  0  0  0
   -0.6600    1.1560   -2.2530 C   0  0  0  0  0  0  0  0  0  0  0  0
   -1.1700    1.2350   -3.4920 C   0  0  0  0  0  0  0  0  0  0  0  0
   -2.2110    0.4530   -3.8350 C   0  0  0  0  0  0  0  0  0  0  0  0
   -2.7250   -0.3950   -2.9250 C   0  0  0  0  0  0  0  0  0  0  0  0
   -2.1980   -0.4540   -1.6920 C   0  0  0  0  0  0  0  0  0  0  0  0
   -0.4960   -4.6470    0.5860 F   0  0  0  0  0  0  0  0  0  0  0  0
   -4.0860   -3.2890    3.1420 F   0  0  0  0  0  0  0  0  0  0  0  0
   -0.6460    2.0840   -4.3650 F   0  0  0  0  0  0  0  0  0  0  0  0
   -2.7260    0.5200   -5.0550 F   0  0  0  0  0  0  0  0  0  0  0  0
   -3.7520   -1.1740   -3.2350 F   0  0  0  0  0  0  0  0  0  0  0  0
    1.6710   -0.3040   -0.7660 O   0  0  0  0  0  0  0  0  0  0  0  0
    2.6330    0.6870   -0.7460 C   0  0  0  0  0  0  0  0  0  0  0  0
    3.3240    0.6680   -1.7540 O   0  0  0  0  0  0  0  0  0  0  0  0
    2.9230    1.6580    0.1890 C   0  0  0  0  0  0  0  0  0  0  0  0
    2.2650    1.8430    1.3510 C   0  0  0  0  0  0  0  0  0  0  0  0
    2.5810    2.8050    2.2340 C   0  0  0  0  0  0  0  0  0  0  0  0
    1.8810    2.9200    3.3550 F   0  0  0  0  0  0  0  0  0  0  0  0
    3.5980    3.6450    1.9820 C   0  0  0  0  0  0  0  0  0  0  0  0
    3.9190    4.5980    2.8470 F   0  0  0  0  0  0  0  0  0  0  0  0
    4.2820    3.4980    0.8350 C   0  0  0  0  0  0  0  0  0  0  0  0
    5.2920    4.3100    0.5530 F   0  0  0  0  0  0  0  0  0  0  0  0
    3.9400    2.5260   -0.0270 C   0  0  0  0  0  0  0  0  0  0  0  0
  1 18  1  0  0  0  0
  2  1  2  0  0  0  0
  3  2  1  0  0  0  0
  4  3  2  0  0  0  0
  4  5  1  0  0  0  0
  5  6  2  0  0  0  0
  6  1  1  0  0  0  0
  7  8  1  0  0  0  0
  7  4  1  0  0  0  0
  8 22  1  6  0  0  0
  9 11  1  6  0  0  0
  9  8  1  0  0  0  0
  9 10  1  0  0  0  0
 10  5  1  0  0  0  0
 12 11  2  0  0  0  0
 13 12  1  0  0  0  0
 14 13  2  0  0  0  0
 14 15  1  0  0  0  0
 15 16  2  0  0  0  0
 16 11  1  0  0  0  0
 17  3  1  0  0  0  0
 19 13  1  0  0  0  0
 20 14  1  0  0  0  0
 21 15  1  0  0  0  0
 22 23  1  0  0  0  0
 23 25  1  0  0  0  0
 24 23  2  0  0  0  0
 25 26  1  0  0  0  0
 26 27  2  0  0  0  0
 27 28  1  0  0  0  0
 29 27  1  0  0  0  0
 29 30  1  0  0  0  0
 31 29  2  0  0  0  0
 32 31  1  0  0  0  0
 33 25  2  0  0  0  0
 33 31  1  0  0  0  0
M  END
