pdbs/nev8ss.pdb
 OpenBabel07211501453D

 41 44  0  0  1  0  0  0  0  0999 V2000
   -3.3020   -0.3890    2.0830 C   0  0  0  0  0  0  0  0  0  0  0  0
   -3.2460   -1.4080    1.2130 C   0  0  0  0  0  0  0  0  0  0  0  0
   -2.5500   -1.3330    0.0680 C   0  0  0  0  0  0  0  0  0  0  0  0
   -1.9270   -0.1750   -0.2350 C   0  0  0  0  0  0  0  0  0  0  0  0
   -1.8990    0.8530    0.6400 C   0  0  0  0  0  0  0  0  0  0  0  0
   -2.5950    0.7120    1.7830 C   0  0  0  0  0  0  0  0  0  0  0  0
   -1.1800   -0.0260   -1.5370 C   0  0  0  0  0  0  0  0  0  0  0  0
    0.0720    0.8230   -1.3220 C   0  0  1  0  0  0  0  0  0  0  0  0
   -0.3840    2.1430   -0.7060 C   0  0  1  0  0  0  0  0  0  0  0  0
   -1.1710    2.0040    0.4560 O   0  0  0  0  0  0  0  0  0  0  0  0
    0.7610    3.1230   -0.5170 C   0  0  0  0  0  0  0  0  0  0  0  0
    1.0810    3.9970   -1.4870 C   0  0  0  0  0  0  0  0  0  0  0  0
    2.0820    4.8810   -1.3480 C   0  0  0  0  0  0  0  0  0  0  0  0
    2.7910    4.8890   -0.2060 C   0  0  0  0  0  0  0  0  0  0  0  0
    2.5010    4.0210    0.7780 C   0  0  0  0  0  0  0  0  0  0  0  0
    1.4910    3.1520    0.6110 C   0  0  0  0  0  0  0  0  0  0  0  0
    1.0990    0.1250   -0.6570 O   0  0  0  0  0  0  0  0  0  0  0  0
    0.7320   -0.6920    0.3880 C   0  0  0  0  0  0  0  0  0  0  0  0
    0.5690   -0.1790    1.4800 O   0  0  0  0  0  0  0  0  0  0  0  0
    0.5330   -2.0380    0.2230 C   0  0  0  0  0  0  0  0  0  0  0  0
    0.0500   -2.8040    1.2190 C   0  0  0  0  0  0  0  0  0  0  0  0
   -0.2470   -4.1010    1.0340 C   0  0  0  0  0  0  0  0  0  0  0  0
   -0.0430   -4.6580   -0.1700 C   0  0  0  0  0  0  0  0  0  0  0  0
    0.4710   -3.9280   -1.1730 C   0  0  0  0  0  0  0  0  0  0  0  0
    0.7520   -2.6320   -0.9650 C   0  0  0  0  0  0  0  0  0  0  0  0
   -0.7760   -4.8570    2.0330 O   0  0  0  0  0  0  0  0  0  0  0  0
   -0.9410   -5.7510    1.6890 H   0  0  0  0  0  0  0  0  0  0  0  0
   -0.3540   -5.9630   -0.3820 O   0  0  0  0  0  0  0  0  0  0  0  0
   -0.1400   -6.1970   -1.3000 H   0  0  0  0  0  0  0  0  0  0  0  0
    0.6740   -4.5030   -2.3880 O   0  0  0  0  0  0  0  0  0  0  0  0
    1.0330   -3.8540   -3.0110 H   0  0  0  0  0  0  0  0  0  0  0  0
   -2.5070   -2.4080   -0.7690 O   0  0  0  0  0  0  0  0  0  0  0  0
   -1.6600   -2.8620   -0.5930 H   0  0  0  0  0  0  0  0  0  0  0  0
    2.3910    5.7670   -2.3330 O   0  0  0  0  0  0  0  0  0  0  0  0
    3.1280    6.3200   -2.0240 H   0  0  0  0  0  0  0  0  0  0  0  0
    3.2250    4.0330    1.9280 O   0  0  0  0  0  0  0  0  0  0  0  0
    2.8820    3.3620    2.5380 H   0  0  0  0  0  0  0  0  0  0  0  0
   -3.9960   -0.4990    3.2470 O   0  0  0  0  0  0  0  0  0  0  0  0
   -4.3430   -1.4030    3.3230 H   0  0  0  0  0  0  0  0  0  0  0  0
    3.8080    5.7760   -0.0400 O   0  0  0  0  0  0  0  0  0  0  0  0
    4.1970    5.6430    0.8400 H   0  0  0  0  0  0  0  0  0  0  0  0
  1 38  1  0  0  0  0
  2  1  2  0  0  0  0
  3  2  1  0  0  0  0
  4  3  2  0  0  0  0
  4  5  1  0  0  0  0
  5  6  2  0  0  0  0
  6  1  1  0  0  0  0
  7  8  1  0  0  0  0
  7  4  1  0  0  0  0
  8  9  1  0  0  0  0
  8 17  1  1  0  0  0
  9 11  1  1  0  0  0
  9 10  1  0  0  0  0
 10  5  1  0  0  0  0
 11 16  2  0  0  0  0
 12 13  2  0  0  0  0
 12 11  1  0  0  0  0
 13 14  1  0  0  0  0
 14 40  1  0  0  0  0
 14 15  2  0  0  0  0
 15 36  1  0  0  0  0
 16 15  1  0  0  0  0
 17 18  1  0  0  0  0
 18 19  2  0  0  0  0
 20 18  1  0  0  0  0
 20 21  2  0  0  0  0
 22 21  1  0  0  0  0
 22 26  1  0  0  0  0
 23 22  2  0  0  0  0
 24 25  2  0  0  0  0
 24 23  1  0  0  0  0
 25 20  1  0  0  0  0
 27 26  1  0  0  0  0
 28 23  1  0  0  0  0
 29 28  1  0  0  0  0
 30 24  1  0  0  0  0
 31 30  1  0  0  0  0
 32 33  1  0  0  0  0
 32  3  1  0  0  0  0
 34 35  1  0  0  0  0
 34 13  1  0  0  0  0
 36 37  1  0  0  0  0
 38 39  1  0  0  0  0
 40 41  1  0  0  0  0
M  END
