pdbs/ng.pdb
 OpenBabel07211501453D

 47 49  0  0  1  0  0  0  0  0999 V2000
   -1.3220    1.1540   -1.3510 C   0  0  0  0  0  0  0  0  0  0  0  0
   -0.2230    0.3690   -1.4300 C   0  0  0  0  0  0  0  0  0  0  0  0
    0.5180   -0.1640   -0.2010 C   0  0  2  0  0  0  0  0  0  0  0  0
   -0.2170   -1.4020    0.3490 C   0  0  0  0  0  0  0  0  0  0  0  0
   -1.6080   -1.1310    0.9500 C   0  0  2  0  0  0  0  0  0  0  0  0
   -1.5870    0.0790    1.9400 C   0  0  0  0  0  0  0  0  0  0  0  0
   -1.0190    1.3220    1.1620 C   0  0  2  0  0  0  0  0  0  0  0  0
   -1.8160    1.5530   -0.1380 C   0  0  0  0  0  0  0  0  0  0  0  0
    0.4290    0.9700    0.8080 C   0  0  0  0  0  0  0  0  0  0  0  0
    1.3940    1.5480    1.2570 O   0  0  0  0  0  0  0  0  0  0  0  0
   -3.0210    0.3090    2.4750 C   0  0  0  0  0  0  0  0  0  0  0  0
   -0.6990   -0.1790    3.1830 C   0  0  0  0  0  0  0  0  0  0  0  0
   -2.9090    2.0770   -0.0430 O   0  0  0  0  0  0  0  0  0  0  0  0
   -1.9730    1.5490   -2.4940 C   0  0  0  0  0  0  0  0  0  0  0  0
   -2.3230    2.7150   -2.5580 O   0  0  0  0  0  0  0  0  0  0  0  0
   -2.2770    0.6620   -3.4940 C   0  0  0  0  0  0  0  0  0  0  0  0
   -2.7590    1.1030   -4.6730 C   0  0  0  0  0  0  0  0  0  0  0  0
   -3.0700    0.2790   -5.6890 C   0  0  0  0  0  0  0  0  0  0  0  0
   -2.9130   -1.0470   -5.5350 C   0  0  0  0  0  0  0  0  0  0  0  0
   -2.4640   -1.5070   -4.3590 C   0  0  0  0  0  0  0  0  0  0  0  0
   -2.1580   -0.6730   -3.3540 C   0  0  0  0  0  0  0  0  0  0  0  0
   -3.5400    0.7580   -6.8730 O   0  0  0  0  0  0  0  0  0  0  0  0
   -3.7120    0.0050   -7.4630 H   0  0  0  0  0  0  0  0  0  0  0  0
   -3.2270   -1.8970   -6.5490 O   0  0  0  0  0  0  0  0  0  0  0  0
   -3.0940   -2.8150   -6.2650 H   0  0  0  0  0  0  0  0  0  0  0  0
    0.3560    0.0410   -2.6230 O   0  0  0  0  0  0  0  0  0  0  0  0
   -0.0940    0.4510   -3.3790 H   0  0  0  0  0  0  0  0  0  0  0  0
    1.9960   -0.5010   -0.5400 C   0  0  0  0  0  0  0  0  0  0  0  0
    2.9100   -1.0590    0.5800 C   0  0  2  0  0  0  0  0  0  0  0  0
    4.3950   -0.7280    0.3140 C   0  0  0  0  0  0  0  0  0  0  0  0
    4.6590    0.7590    0.3550 C   0  0  0  0  0  0  0  0  0  0  0  0
    4.9030    1.5810   -0.6820 C   0  0  0  0  0  0  0  0  0  0  0  0
    5.1250    3.0600   -0.4610 C   0  0  0  0  0  0  0  0  0  0  0  0
    4.9590    1.1580   -2.1310 C   0  0  0  0  0  0  0  0  0  0  0  0
    2.8040   -2.5590    0.8170 C   0  0  0  0  0  0  0  0  0  0  0  0
    2.7770   -3.0030    2.2620 C   0  0  0  0  0  0  0  0  0  0  0  0
    2.8320   -3.4610   -0.1780 C   0  0  0  0  0  0  0  0  0  0  0  0
   -1.0430    2.6720    1.9350 C   0  0  0  0  0  0  0  0  0  0  0  0
   -0.6400    3.8360    1.0530 C   0  0  0  0  0  0  0  0  0  0  0  0
   -1.4060    4.8520    0.6150 C   0  0  0  0  0  0  0  0  0  0  0  0
   -0.8330    5.9080   -0.3050 C   0  0  0  0  0  0  0  0  0  0  0  0
   -2.8660    5.0590    0.9380 C   0  0  0  0  0  0  0  0  0  0  0  0
   -2.3050   -2.4460    1.3740 C   0  0  0  0  0  0  0  0  0  0  0  0
   -1.6820   -3.2210    2.5070 C   0  0  0  0  0  0  0  0  0  0  0  0
   -0.8780   -4.2960    2.4260 C   0  0  0  0  0  0  0  0  0  0  0  0
   -0.3780   -4.9850    3.6760 C   0  0  0  0  0  0  0  0  0  0  0  0
   -0.4170   -4.9420    1.1420 C   0  0  0  0  0  0  0  0  0  0  0  0
  1  8  1  0  0  0  0
  2  1  2  0  0  0  0
  2  3  1  0  0  0  0
  3 28  1  6  0  0  0
  3  4  1  0  0  0  0
  3  9  1  0  0  0  0
  4  5  1  0  0  0  0
  5 43  1  1  0  0  0
  5  6  1  0  0  0  0
  6 11  1  0  0  0  0
  6 12  1  0  0  0  0
  7 38  1  1  0  0  0
  7  6  1  0  0  0  0
  8 13  2  0  0  0  0
  8  7  1  0  0  0  0
  9  7  1  0  0  0  0
  9 10  2  0  0  0  0
 14  1  1  0  0  0  0
 15 14  2  0  0  0  0
 16 21  1  0  0  0  0
 16 14  1  0  0  0  0
 17 16  2  0  0  0  0
 18 19  2  0  0  0  0
 18 17  1  0  0  0  0
 19 20  1  0  0  0  0
 20 21  2  0  0  0  0
 22 18  1  0  0  0  0
 23 22  1  0  0  0  0
 24 25  1  0  0  0  0
 24 19  1  0  0  0  0
 26  2  1  0  0  0  0
 27 26  1  0  0  0  0
 29 28  1  6  0  0  0
 29 35  1  0  0  0  0
 30 31  1  0  0  0  0
 30 29  1  0  0  0  0
 32 33  1  0  0  0  0
 32 31  2  0  0  0  0
 34 32  1  0  0  0  0
 35 36  1  0  0  0  0
 37 35  2  0  0  0  0
 39 38  1  0  0  0  0
 40 42  1  0  0  0  0
 40 39  2  0  0  0  0
 41 40  1  0  0  0  0
 43 44  1  0  0  0  0
 45 44  2  0  0  0  0
 45 46  1  0  0  0  0
 47 45  1  0  0  0  0
M  END
