pdbs/nsau.pdb
 OpenBabel07211501453D

 25 25  0  0  0  0  0  0  0  0999 V2000
   -2.5000   -0.2140   -0.2090 C   0  0  0  0  0  0  0  0  0  0  0  0
   -3.9440    0.2900   -0.0170 C   0  0  0  0  0  0  0  0  0  0  0  0
   -5.0560   -0.7270    0.2320 C   0  0  0  0  0  0  0  0  0  0  0  0
   -4.7260   -2.0320    0.2860 C   0  0  0  0  0  0  0  0  0  0  0  0
   -5.6390   -2.9860    0.4970 C   0  0  0  0  0  0  0  0  0  0  0  0
   -6.9160   -2.6280    0.6600 C   0  0  0  0  0  0  0  0  0  0  0  0
   -7.3000   -1.3400    0.6200 C   0  0  0  0  0  0  0  0  0  0  0  0
   -6.3620   -0.3850    0.4010 C   0  0  0  0  0  0  0  0  0  0  0  0
   -8.6330   -1.1000    0.7960 O   0  0  0  0  0  0  0  0  0  0  0  0
   -8.9790   -0.2100    0.6700 H   0  0  0  0  0  0  0  0  0  0  0  0
   -6.7790    0.9130    0.3630 C   0  0  0  0  0  0  0  0  0  0  0  0
   -6.0170    1.8860    0.1810 O   0  0  0  0  0  0  0  0  0  0  0  0
   -7.9920    1.1690    0.5200 O   0  0  0  0  0  0  0  0  0  0  0  0
   -1.5170    0.9470   -0.4530 C   0  0  0  0  0  0  0  0  0  0  0  0
   -0.0780    0.4470   -0.6600 C   0  0  0  0  0  0  0  0  0  0  0  0
    0.9060    1.6060   -0.8940 C   0  0  0  0  0  0  0  0  0  0  0  0
    2.3400    1.1020   -1.1210 C   0  0  0  0  0  0  0  0  0  0  0  0
    3.2870    2.2540   -1.3530 C   0  0  0  0  0  0  0  0  0  0  0  0
    4.3550    2.6000   -0.6150 C   0  0  0  0  0  0  0  0  0  0  0  0
    4.8730    1.9200    0.6270 C   0  0  0  0  0  0  0  0  0  0  0  0
    6.3050    1.4970    0.4170 C   0  0  0  0  0  0  0  0  0  0  0  0
    6.7250    0.2790    0.0390 C   0  0  0  0  0  0  0  0  0  0  0  0
    5.8520   -0.9170   -0.2410 C   0  0  0  0  0  0  0  0  0  0  0  0
    5.8840   -1.8600    0.9330 C   0  0  0  0  0  0  0  0  0  0  0  0
    6.3630   -3.1100    0.8760 C   0  0  0  0  0  0  0  0  0  0  0  0
  1  2  1  0  0  0  0
  2  3  1  0  0  0  0
  3  4  2  0  0  0  0
  3  8  1  0  0  0  0
  4  5  1  0  0  0  0
  5  6  2  0  0  0  0
  7  6  1  0  0  0  0
  7  9  1  0  0  0  0
  8  7  2  0  0  0  0
 10  9  1  0  0  0  0
 11  8  1  0  0  0  0
 11 13  1  0  0  0  0
 12 11  2  0  0  0  0
 14  1  1  0  0  0  0
 15 14  1  0  0  0  0
 16 15  1  0  0  0  0
 17 16  1  0  0  0  0
 18 17  1  0  0  0  0
 18 19  2  0  0  0  0
 19 20  1  0  0  0  0
 21 20  1  0  0  0  0
 22 21  2  0  0  0  0
 23 22  1  0  0  0  0
 23 24  1  0  0  0  0
 25 24  2  0  0  0  0
M  END
