pdbs/s3ecnr.pdb
 OpenBabel07211501463D

 33 36  0  0  1  0  0  0  0  0999 V2000
    2.3660   -0.5440   -1.1220 C   0  0  0  0  0  0  0  0  0  0  0  0
    2.4700    0.7500   -0.8090 C   0  0  2  0  0  0  0  0  0  0  0  0
    1.6010    1.4120   -0.0280 C   0  0  0  0  0  0  0  0  0  0  0  0
    1.8490    2.6660   -0.2280 N   0  0  0  0  0  0  0  0  0  0  0  0
    0.5870    0.6470    0.5560 O   0  0  0  0  0  0  0  0  0  0  0  0
    1.3470    3.7950    0.1180 C   0  0  0  0  0  0  0  0  0  0  0  0
    2.8420    2.7460   -0.9890 N   0  0  0  0  0  0  0  0  0  0  0  0
    1.8090    4.9540   -0.4210 C   0  0  0  0  0  0  0  0  0  0  0  0
    0.3160    3.9670    0.9730 C   0  0  0  0  0  0  0  0  0  0  0  0
    1.3070    6.1680   -0.1630 C   0  0  0  0  0  0  0  0  0  0  0  0
    0.2900    6.3110    0.6980 C   0  0  0  0  0  0  0  0  0  0  0  0
   -0.1850    5.1850    1.2670 C   0  0  0  0  0  0  0  0  0  0  0  0
    3.2690    1.6380   -1.3830 C   0  0  0  0  0  0  0  0  0  0  0  0
    4.3660    1.4850   -2.3840 C   0  0  0  0  0  0  0  0  0  0  0  0
   -0.2150    7.5480    0.9560 C   0  0  0  0  0  0  0  0  0  0  0  0
    0.2630    8.5560    0.3840 O   0  0  0  0  0  0  0  0  0  0  0  0
   -1.1600    7.6820    1.7650 O   0  0  0  0  0  0  0  0  0  0  0  0
    1.0900   -0.8710   -0.8840 C   0  0  1  0  0  0  0  0  0  0  0  0
    0.5650   -0.7720    0.2500 O   0  0  0  0  0  0  0  0  0  0  0  0
   -0.4080   -1.5430   -0.0030 C   0  0  1  0  0  0  0  0  0  0  0  0
   -0.9880   -2.5970    0.6280 C   0  0  0  0  0  0  0  0  0  0  0  0
   -0.9400   -1.1680   -1.1830 C   0  0  0  0  0  0  0  0  0  0  0  0
   -0.3010   -3.7440    0.8780 C   0  0  0  0  0  0  0  0  0  0  0  0
   -2.3380   -2.6500    0.6580 C   0  0  0  0  0  0  0  0  0  0  0  0
   -1.0260   -4.8660    1.0810 C   0  0  0  0  0  0  0  0  0  0  0  0
   -2.3670   -4.9320    1.0380 C   0  0  0  0  0  0  0  0  0  0  0  0
   -3.0560   -6.2880    1.1140 C   0  0  0  0  0  0  0  0  0  0  0  0
   -3.0410   -3.7830    0.8430 C   0  0  0  0  0  0  0  0  0  0  0  0
   -4.5530   -3.7430    0.7210 C   0  0  0  0  0  0  0  0  0  0  0  0
    0.1450   -0.7530   -1.8330 C   0  0  0  0  0  0  0  0  0  0  0  0
    0.9440   -3.9200    0.8240 N   0  0  0  0  0  0  0  0  0  0  0  0
    1.5210   -5.0950    0.9580 O   0  0  0  0  0  0  0  0  0  0  0  0
    1.8700   -3.0510    0.5540 O   0  0  0  0  0  0  0  0  0  0  0  0
  2  1  1  6  0  0  0
  2  3  1  0  0  0  0
  3  5  2  0  0  0  0
  4  3  1  0  0  0  0
  4  6  1  0  0  0  0
  6  9  2  0  0  0  0
  7  4  1  0  0  0  0
  8 10  2  0  0  0  0
  8  6  1  0  0  0  0
  9 12  1  0  0  0  0
 10 11  1  0  0  0  0
 11 15  1  0  0  0  0
 11 12  2  0  0  0  0
 13  7  2  0  0  0  0
 13  2  1  0  0  0  0
 14 13  1  0  0  0  0
 15 17  1  0  0  0  0
 16 15  2  0  0  0  0
 18  1  1  1  0  0  0
 18 19  1  0  0  0  0
 20 19  1  0  0  0  0
 20 21  1  1  0  0  0
 21 24  2  0  0  0  0
 21 23  1  0  0  0  0
 22 20  1  0  0  0  0
 23 25  2  0  0  0  0
 24 28  1  0  0  0  0
 26 25  1  0  0  0  0
 26 27  1  0  0  0  0
 28 26  2  0  0  0  0
 29 28  1  0  0  0  0
 30 22  1  0  0  0  0
 30 18  1  0  0  0  0
 31 23  1  0  0  0  0
 31 32  2  0  0  0  0
 33 31  2  0  0  0  0
M  END
