pdbs/s3emar.pdb
 OpenBabel07211501463D

 33 36  0  0  1  0  0  0  0  0999 V2000
    2.6220    0.0840   -0.3800 C   0  0  0  0  0  0  0  0  0  0  0  0
    2.5340    1.3930   -0.6350 C   0  0  1  0  0  0  0  0  0  0  0  0
    3.2270    2.1270   -1.6150 C   0  0  0  0  0  0  0  0  0  0  0  0
    4.2150    1.5240   -2.5640 C   0  0  0  0  0  0  0  0  0  0  0  0
    2.9040    3.4230   -1.6010 N   0  0  0  0  0  0  0  0  0  0  0  0
    2.0020    3.5150   -0.6100 N   0  0  0  0  0  0  0  0  0  0  0  0
    1.4440    4.6020   -0.2770 C   0  0  0  0  0  0  0  0  0  0  0  0
    1.7460    2.3220    0.0010 C   0  0  0  0  0  0  0  0  0  0  0  0
    1.7580    5.7820   -0.9500 C   0  0  0  0  0  0  0  0  0  0  0  0
    0.5160    4.6180    0.7640 C   0  0  0  0  0  0  0  0  0  0  0  0
    1.1440    6.9790   -0.5820 C   0  0  0  0  0  0  0  0  0  0  0  0
    0.2150    6.9960    0.4590 C   0  0  0  0  0  0  0  0  0  0  0  0
   -0.0990    5.8150    1.1320 C   0  0  0  0  0  0  0  0  0  0  0  0
    0.8890    2.0990    1.0260 O   0  0  0  0  0  0  0  0  0  0  0  0
   -0.3800    8.1550    0.8160 C   0  0  0  0  0  0  0  0  0  0  0  0
   -0.0980    9.2130    0.2130 O   0  0  0  0  0  0  0  0  0  0  0  0
   -1.2120    8.1690    1.7490 O   0  0  0  0  0  0  0  0  0  0  0  0
    1.5140   -0.6610   -0.3150 C   0  0  0  0  0  0  0  0  0  0  0  0
    1.3960   -2.4240    0.0120 O   0  0  0  0  0  0  0  0  0  0  0  0
   -0.3110   -2.3280   -0.0160 C   0  0  0  0  0  0  0  0  0  0  0  0
   -0.7190   -1.1430   -0.3330 C   0  0  0  0  0  0  0  0  0  0  0  0
   -1.1240   -3.3540    0.2560 C   0  0  0  0  0  0  0  0  0  0  0  0
    0.1530   -0.2250   -0.4920 C   0  0  0  0  0  0  0  0  0  0  0  0
   -0.5890   -4.5980    0.5880 C   0  0  0  0  0  0  0  0  0  0  0  0
   -2.5070   -3.1790    0.2070 C   0  0  0  0  0  0  0  0  0  0  0  0
   -1.4370   -5.6690    0.8720 C   0  0  0  0  0  0  0  0  0  0  0  0
   -0.8640   -7.0040    1.2290 C   0  0  0  0  0  0  0  0  0  0  0  0
   -2.8200   -5.4940    0.8240 C   0  0  0  0  0  0  0  0  0  0  0  0
   -3.7310   -6.6430    1.1280 C   0  0  0  0  0  0  0  0  0  0  0  0
   -3.3550   -4.2490    0.4910 C   0  0  0  0  0  0  0  0  0  0  0  0
   -2.9850   -2.0660   -0.0900 N   0  0  0  0  0  0  0  0  0  0  0  0
   -3.2340   -1.7730   -1.3420 O   0  0  0  0  0  0  0  0  0  0  0  0
   -3.2380   -1.1890    0.8500 O   0  0  0  0  0  0  0  0  0  0  0  0
  1 18  1  0  0  0  0
  2  1  1  6  0  0  0
  2  8  1  0  0  0  0
  3  5  2  0  0  0  0
  3  2  1  0  0  0  0
  4  3  1  0  0  0  0
  5  6  1  0  0  0  0
  6  7  1  0  0  0  0
  6  8  1  0  0  0  0
  7 10  2  0  0  0  0
  8 14  2  0  0  0  0
  9 11  2  0  0  0  0
  9  7  1  0  0  0  0
 10 13  1  0  0  0  0
 11 12  1  0  0  0  0
 12 15  1  0  0  0  0
 12 13  2  0  0  0  0
 15 17  1  0  0  0  0
 16 15  2  0  0  0  0
 18 19  1  0  0  0  0
 20 19  1  0  0  0  0
 20 22  1  0  0  0  0
 21 20  2  0  0  0  0
 22 24  1  0  0  0  0
 23 21  1  0  0  0  0
 23 18  2  0  0  0  0
 24 26  2  0  0  0  0
 25 22  2  0  0  0  0
 25 30  1  0  0  0  0
 26 27  1  0  0  0  0
 28 26  1  0  0  0  0
 28 29  1  0  0  0  0
 30 28  2  0  0  0  0
 31 25  1  0  0  0  0
 31 33  2  0  0  0  0
 32 31  2  0  0  0  0
M  END
