pdbs/s3emnr.pdb
 OpenBabel07211501463D

 33 36  0  0  1  0  0  0  0  0999 V2000
    0.4120    3.3460   -0.4920 C   0  0  0  0  0  0  0  0  0  0  0  0
    1.5870    2.7310   -0.3650 C   0  0  0  0  0  0  0  0  0  0  0  0
    1.6670    1.4020   -0.2240 C   0  0  0  0  0  0  0  0  0  0  0  0
    2.9250    1.1200   -0.1520 N   0  0  0  0  0  0  0  0  0  0  0  0
    0.4600    0.7180   -0.2810 O   0  0  0  0  0  0  0  0  0  0  0  0
    3.6330    0.0670    0.0480 C   0  0  0  0  0  0  0  0  0  0  0  0
    3.5650    2.1900   -0.3000 N   0  0  0  0  0  0  0  0  0  0  0  0
    4.9900    0.1190    0.1110 C   0  0  0  0  0  0  0  0  0  0  0  0
    3.1160   -1.1640    0.2370 C   0  0  0  0  0  0  0  0  0  0  0  0
    5.7700   -0.9390    0.3670 C   0  0  0  0  0  0  0  0  0  0  0  0
    5.2320   -2.1530    0.5720 C   0  0  0  0  0  0  0  0  0  0  0  0
    3.8890   -2.2400    0.4890 C   0  0  0  0  0  0  0  0  0  0  0  0
    2.8290    3.1980   -0.4390 C   0  0  0  0  0  0  0  0  0  0  0  0
    3.3630    4.5730   -0.6860 C   0  0  0  0  0  0  0  0  0  0  0  0
    6.0280   -3.2260    0.8510 C   0  0  0  0  0  0  0  0  0  0  0  0
    7.2720   -3.0860    0.9270 O   0  0  0  0  0  0  0  0  0  0  0  0
    5.5130   -4.3520    1.0410 O   0  0  0  0  0  0  0  0  0  0  0  0
   -0.7000    2.6000   -0.4640 C   0  0  2  0  0  0  0  0  0  0  0  0
   -0.8300    1.3710   -0.1470 O   0  0  0  0  0  0  0  0  0  0  0  0
   -2.0030    1.0620   -0.5360 C   0  0  2  0  0  0  0  0  0  0  0  0
   -2.5260    2.0760   -1.2550 C   0  0  0  0  0  0  0  0  0  0  0  0
   -2.8220    0.0380   -0.1610 C   0  0  0  0  0  0  0  0  0  0  0  0
   -1.7790    3.1490   -1.0350 C   0  0  0  0  0  0  0  0  0  0  0  0
   -2.3300   -1.1730    0.1800 C   0  0  0  0  0  0  0  0  0  0  0  0
   -4.1860    0.1460   -0.1360 C   0  0  0  0  0  0  0  0  0  0  0  0
   -3.0980   -2.2460    0.4760 C   0  0  0  0  0  0  0  0  0  0  0  0
   -2.4710   -3.5820    0.8210 C   0  0  0  0  0  0  0  0  0  0  0  0
   -4.4350   -2.1330    0.4420 C   0  0  0  0  0  0  0  0  0  0  0  0
   -5.4230   -3.2560    0.7250 C   0  0  0  0  0  0  0  0  0  0  0  0
   -4.9440   -0.9330    0.1480 C   0  0  0  0  0  0  0  0  0  0  0  0
   -4.7560    1.2480   -0.3720 N   0  0  0  0  0  0  0  0  0  0  0  0
   -5.7150    1.0600   -1.2770 O   0  0  0  0  0  0  0  0  0  0  0  0
   -5.6060    1.5090    0.6190 O   0  0  0  0  0  0  0  0  0  0  0  0
  1  2  2  0  0  0  0
  2  3  1  0  0  0  0
  3  4  1  0  0  0  0
  4  6  1  0  0  0  0
  5  3  2  0  0  0  0
  6  8  2  0  0  0  0
  6  9  1  0  0  0  0
  7  4  1  0  0  0  0
  8 10  1  0  0  0  0
  9 12  2  0  0  0  0
 10 11  2  0  0  0  0
 11 15  1  0  0  0  0
 12 11  1  0  0  0  0
 13  2  1  0  0  0  0
 13  7  2  0  0  0  0
 14 13  1  0  0  0  0
 15 16  2  0  0  0  0
 15 17  1  0  0  0  0
 18  1  1  6  0  0  0
 18 19  1  0  0  0  0
 20 22  1  1  0  0  0
 20 19  1  0  0  0  0
 21 23  1  0  0  0  0
 21 20  1  0  0  0  0
 22 25  2  0  0  0  0
 22 24  1  0  0  0  0
 23 18  1  0  0  0  0
 24 26  2  0  0  0  0
 25 30  1  0  0  0  0
 26 27  1  0  0  0  0
 28 26  1  0  0  0  0
 28 29  1  0  0  0  0
 30 28  2  0  0  0  0
 31 25  1  0  0  0  0
 31 33  1  0  0  0  0
 32 31  1  0  0  0  0
M  END
