pdbs/s3zcar.pdb
 OpenBabel07211501463D

 33 36  0  0  1  0  0  0  0  0999 V2000
    2.4320   -0.3880   -0.7360 C   0  0  0  0  0  0  0  0  0  0  0  0
    1.1380   -0.7990   -0.6910 C   0  0  2  0  0  0  0  0  0  0  0  0
    0.1120   -0.1220   -1.2590 C   0  0  0  0  0  0  0  0  0  0  0  0
   -0.9690   -0.6980   -0.7230 C   0  0  0  0  0  0  0  0  0  0  0  0
   -0.4250   -1.5590    0.1490 C   0  0  2  0  0  0  0  0  0  0  0  0
   -1.0950   -2.7190    0.5300 C   0  0  0  0  0  0  0  0  0  0  0  0
    0.6190   -0.8240    0.4400 O   0  0  0  0  0  0  0  0  0  0  0  0
   -2.4450   -2.8580    0.3670 C   0  0  0  0  0  0  0  0  0  0  0  0
   -0.5060   -3.9270    0.8050 C   0  0  0  0  0  0  0  0  0  0  0  0
   -3.0600   -4.0510    0.5250 C   0  0  0  0  0  0  0  0  0  0  0  0
   -2.4630   -5.2050    0.8270 C   0  0  0  0  0  0  0  0  0  0  0  0
   -3.3830   -6.4030    1.0470 C   0  0  0  0  0  0  0  0  0  0  0  0
   -1.1260   -5.1370    0.9380 C   0  0  0  0  0  0  0  0  0  0  0  0
   -0.4610   -6.4890    1.2020 C   0  0  0  0  0  0  0  0  0  0  0  0
   -3.1950   -1.8850    0.0620 N   0  0  0  0  0  0  0  0  0  0  0  0
   -4.0870   -1.7750    1.0350 O   0  0  0  0  0  0  0  0  0  0  0  0
   -3.9970   -2.2680   -0.9430 O   0  0  0  0  0  0  0  0  0  0  0  0
    2.5050    0.9390   -0.7390 C   0  0  1  0  0  0  0  0  0  0  0  0
    3.2320    1.8140   -1.4220 C   0  0  0  0  0  0  0  0  0  0  0  0
    4.2780    1.6580   -2.5100 C   0  0  0  0  0  0  0  0  0  0  0  0
    2.7340    2.9240   -1.0820 N   0  0  0  0  0  0  0  0  0  0  0  0
    1.8050    2.8360   -0.2540 N   0  0  0  0  0  0  0  0  0  0  0  0
    1.6470    1.5890    0.0630 C   0  0  0  0  0  0  0  0  0  0  0  0
    1.3130    4.0160   -0.0010 C   0  0  0  0  0  0  0  0  0  0  0  0
    0.8140    0.6830    0.8020 O   0  0  0  0  0  0  0  0  0  0  0  0
    0.3740    4.2770    0.9190 C   0  0  0  0  0  0  0  0  0  0  0  0
    1.6830    5.1450   -0.6700 C   0  0  0  0  0  0  0  0  0  0  0  0
   -0.0980    5.5240    1.1570 C   0  0  0  0  0  0  0  0  0  0  0  0
    0.2840    6.6140    0.4650 C   0  0  0  0  0  0  0  0  0  0  0  0
    1.2050    6.3880   -0.4760 C   0  0  0  0  0  0  0  0  0  0  0  0
   -0.2110    7.8720    0.6800 C   0  0  0  0  0  0  0  0  0  0  0  0
   -1.0570    8.0640    1.5840 O   0  0  0  0  0  0  0  0  0  0  0  0
    0.1850    8.8560    0.0090 O   0  0  0  0  0  0  0  0  0  0  0  0
  2  1  1  1  0  0  0
  2  7  1  0  0  0  0
  3  4  1  0  0  0  0
  3  2  1  0  0  0  0
  4  5  1  0  0  0  0
  5  7  1  0  0  0  0
  5  6  1  1  0  0  0
  6  9  2  0  0  0  0
  8 10  2  0  0  0  0
  8  6  1  0  0  0  0
  9 13  1  0  0  0  0
 10 11  1  0  0  0  0
 11 13  2  0  0  0  0
 11 12  1  0  0  0  0
 13 14  1  0  0  0  0
 15  8  1  0  0  0  0
 15 16  1  0  0  0  0
 17 15  1  0  0  0  0
 18  1  1  6  0  0  0
 18 23  1  0  0  0  0
 19 21  2  0  0  0  0
 19 18  1  0  0  0  0
 20 19  1  0  0  0  0
 21 22  1  0  0  0  0
 22 24  1  0  0  0  0
 22 23  1  0  0  0  0
 23 25  2  0  0  0  0
 24 26  2  0  0  0  0
 26 28  1  0  0  0  0
 27 30  2  0  0  0  0
 27 24  1  0  0  0  0
 29 31  1  0  0  0  0
 29 28  2  0  0  0  0
 30 29  1  0  0  0  0
 31 32  1  0  0  0  0
 33 31  2  0  0  0  0
M  END
