pdbs/s3zcnr.pdb
 OpenBabel07211501463D

 33 36  0  0  1  0  0  0  0  0999 V2000
    2.1720   -0.4380   -0.8470 C   0  0  0  0  0  0  0  0  0  0  0  0
    2.4210    0.8760   -0.8920 C   0  0  1  0  0  0  0  0  0  0  0  0
    1.6240    1.5130   -0.0110 C   0  0  0  0  0  0  0  0  0  0  0  0
    1.8880    2.7430   -0.2410 N   0  0  0  0  0  0  0  0  0  0  0  0
    0.8480    0.5950    0.8770 O   0  0  0  0  0  0  0  0  0  0  0  0
    1.3960    3.9110    0.1070 C   0  0  0  0  0  0  0  0  0  0  0  0
    2.8590    2.8670   -1.0090 N   0  0  0  0  0  0  0  0  0  0  0  0
    1.8150    5.0050   -0.6020 C   0  0  0  0  0  0  0  0  0  0  0  0
    0.4030    4.1700    0.9970 C   0  0  0  0  0  0  0  0  0  0  0  0
    1.3100    6.2440   -0.4560 C   0  0  0  0  0  0  0  0  0  0  0  0
    0.4120    6.4840    0.4970 C   0  0  0  0  0  0  0  0  0  0  0  0
   -0.0580    5.4410    1.2010 C   0  0  0  0  0  0  0  0  0  0  0  0
    3.2580    1.7500   -1.4810 C   0  0  0  0  0  0  0  0  0  0  0  0
    4.3870    1.6490   -2.4910 C   0  0  0  0  0  0  0  0  0  0  0  0
   -0.0310    7.7580    0.6650 C   0  0  0  0  0  0  0  0  0  0  0  0
    0.4330    8.6800   -0.0560 O   0  0  0  0  0  0  0  0  0  0  0  0
   -0.8690    8.0250    1.5610 O   0  0  0  0  0  0  0  0  0  0  0  0
    0.9040   -0.7850   -0.5570 C   0  0  1  0  0  0  0  0  0  0  0  0
    0.5560   -0.9020    0.6390 O   0  0  0  0  0  0  0  0  0  0  0  0
   -0.3750   -1.7240    0.2940 C   0  0  1  0  0  0  0  0  0  0  0  0
   -0.8630   -2.9660    0.7050 C   0  0  0  0  0  0  0  0  0  0  0  0
   -1.0690   -0.9920   -0.6030 C   0  0  0  0  0  0  0  0  0  0  0  0
   -0.2650   -4.1940    0.8950 C   0  0  0  0  0  0  0  0  0  0  0  0
   -2.2030   -3.0940    0.6470 C   0  0  0  0  0  0  0  0  0  0  0  0
   -0.9900   -5.3620    0.9800 C   0  0  0  0  0  0  0  0  0  0  0  0
   -2.3500   -5.4050    0.9210 C   0  0  0  0  0  0  0  0  0  0  0  0
   -3.2590   -6.6410    1.0640 C   0  0  0  0  0  0  0  0  0  0  0  0
   -2.9180   -4.2160    0.7020 C   0  0  0  0  0  0  0  0  0  0  0  0
   -4.3680   -3.8640    0.4130 C   0  0  0  0  0  0  0  0  0  0  0  0
   -0.1510   -0.2210   -1.1620 C   0  0  0  0  0  0  0  0  0  0  0  0
    0.9850   -4.2220    0.7810 N   0  0  0  0  0  0  0  0  0  0  0  0
    1.1360   -4.3330   -0.5260 O   0  0  0  0  0  0  0  0  0  0  0  0
    1.6660   -3.1390    1.1020 O   0  0  0  0  0  0  0  0  0  0  0  0
  2  1  1  1  0  0  0
  2  3  1  0  0  0  0
  3  5  2  0  0  0  0
  4  3  1  0  0  0  0
  4  6  1  0  0  0  0
  6  9  2  0  0  0  0
  7  4  1  0  0  0  0
  8 10  2  0  0  0  0
  8  6  1  0  0  0  0
  9 12  1  0  0  0  0
 10 11  1  0  0  0  0
 11 15  1  0  0  0  0
 11 12  2  0  0  0  0
 13  7  2  0  0  0  0
 13  2  1  0  0  0  0
 14 13  1  0  0  0  0
 15 17  1  0  0  0  0
 16 15  2  0  0  0  0
 18  1  1  1  0  0  0
 18 19  1  0  0  0  0
 20 19  1  0  0  0  0
 20 21  1  1  0  0  0
 21 23  2  0  0  0  0
 22 20  1  0  0  0  0
 23 25  1  0  0  0  0
 24 28  2  0  0  0  0
 24 21  1  0  0  0  0
 26 25  2  0  0  0  0
 26 27  1  0  0  0  0
 28 26  1  0  0  0  0
 29 28  1  0  0  0  0
 30 22  1  0  0  0  0
 30 18  1  0  0  0  0
 31 23  1  0  0  0  0
 31 33  1  0  0  0  0
 32 31  1  0  0  0  0
M  END
