pdbs/s3zca.pdb
 OpenBabel07211501463D

 33 36  0  0  0  0  0  0  0  0999 V2000
    5.4650   -1.9400    1.4960 C   0  0  0  0  0  0  0  0  0  0  0  0
    4.6910   -2.8730    2.0580 C   0  0  0  0  0  0  0  0  0  0  0  0
    3.3600   -2.6640    2.0400 C   0  0  0  0  0  0  0  0  0  0  0  0
    2.8350   -1.5770    1.4320 C   0  0  0  0  0  0  0  0  0  0  0  0
    3.5860   -0.6250    0.8420 C   0  0  0  0  0  0  0  0  0  0  0  0
    4.9220   -0.8450    0.9370 C   0  0  0  0  0  0  0  0  0  0  0  0
    3.1190    0.4220    0.2510 N   0  0  0  0  0  0  0  0  0  0  0  0
    1.9350    0.7310   -0.1410 C   0  0  0  0  0  0  0  0  0  0  0  0
    1.9300    2.0000   -0.6450 C   0  0  0  0  0  0  0  0  0  0  0  0
    3.2170    2.3500   -0.5050 C   0  0  0  0  0  0  0  0  0  0  0  0
    3.8690    1.3770   -0.0410 N   0  0  0  0  0  0  0  0  0  0  0  0
    0.9530    2.7640   -1.1930 C   0  0  0  0  0  0  0  0  0  0  0  0
    3.9350    3.6460   -0.7780 C   0  0  0  0  0  0  0  0  0  0  0  0
    1.0020   -0.0360   -0.1360 O   0  0  0  0  0  0  0  0  0  0  0  0
   -0.3630    2.5880   -1.4070 C   0  0  0  0  0  0  0  0  0  0  0  0
   -1.1750    3.4490   -2.0440 C   0  0  0  0  0  0  0  0  0  0  0  0
   -2.3850    2.8830   -1.9860 C   0  0  0  0  0  0  0  0  0  0  0  0
   -2.2130    1.7540   -1.2710 C   0  0  0  0  0  0  0  0  0  0  0  0
   -1.0020    1.5950   -1.0510 O   0  0  0  0  0  0  0  0  0  0  0  0
   -3.0920    0.8080   -0.8420 C   0  0  0  0  0  0  0  0  0  0  0  0
   -2.5860   -0.3810   -0.4800 C   0  0  0  0  0  0  0  0  0  0  0  0
   -4.4420    0.9170   -0.8300 C   0  0  0  0  0  0  0  0  0  0  0  0
   -3.3190   -1.4620   -0.1200 C   0  0  0  0  0  0  0  0  0  0  0  0
   -2.5930   -2.7420    0.2370 C   0  0  0  0  0  0  0  0  0  0  0  0
   -4.6490   -1.3430   -0.0980 C   0  0  0  0  0  0  0  0  0  0  0  0
   -5.5620   -2.4640    0.3690 C   0  0  0  0  0  0  0  0  0  0  0  0
   -5.1860   -0.1630   -0.4800 C   0  0  0  0  0  0  0  0  0  0  0  0
   -5.0450    1.9760   -1.0940 N   0  0  0  0  0  0  0  0  0  0  0  0
   -6.0590    1.8690   -1.9250 O   0  0  0  0  0  0  0  0  0  0  0  0
   -4.6420    3.1820   -0.7630 O   0  0  0  0  0  0  0  0  0  0  0  0
    5.2300   -3.9890    2.6310 C   0  0  0  0  0  0  0  0  0  0  0  0
    4.4730   -4.8250    3.1640 O   0  0  0  0  0  0  0  0  0  0  0  0
    6.4710   -4.1660    2.6130 O   0  0  0  0  0  0  0  0  0  0  0  0
  1  2  2  0  0  0  0
  2 31  1  0  0  0  0
  3  2  1  0  0  0  0
  4  3  2  0  0  0  0
  5  6  2  0  0  0  0
  5  4  1  0  0  0  0
  6  1  1  0  0  0  0
  7  5  1  0  0  0  0
  8 14  2  0  0  0  0
  8  7  1  0  0  0  0
  9 10  1  0  0  0  0
  9  8  1  0  0  0  0
 10 11  2  0  0  0  0
 11  7  1  0  0  0  0
 12  9  2  0  0  0  0
 13 10  1  0  0  0  0
 15 12  1  0  0  0  0
 15 19  1  0  0  0  0
 16 17  1  0  0  0  0
 16 15  2  0  0  0  0
 17 18  2  0  0  0  0
 18 19  1  0  0  0  0
 18 20  1  0  0  0  0
 20 22  2  0  0  0  0
 20 21  1  0  0  0  0
 21 23  2  0  0  0  0
 22 27  1  0  0  0  0
 23 25  1  0  0  0  0
 23 24  1  0  0  0  0
 25 26  1  0  0  0  0
 27 25  2  0  0  0  0
 28 22  1  0  0  0  0
 28 30  2  0  0  0  0
 29 28  2  0  0  0  0
 31 32  1  0  0  0  0
 33 31  2  0  0  0  0
M  END
