pdbs/s3zmnr.pdb
 OpenBabel07211501463D

 33 36  0  0  1  0  0  0  0  0999 V2000
    2.4410   -0.1170   -0.4190 C   0  0  0  0  0  0  0  0  0  0  0  0
    2.4660    1.2200   -0.6320 C   0  0  1  0  0  0  0  0  0  0  0  0
    1.7470    2.1560    0.0140 C   0  0  0  0  0  0  0  0  0  0  0  0
    1.9670    3.3250   -0.4780 N   0  0  0  0  0  0  0  0  0  0  0  0
    1.0060    1.8340    1.1050 O   0  0  0  0  0  0  0  0  0  0  0  0
    1.4220    4.4560   -0.1870 C   0  0  0  0  0  0  0  0  0  0  0  0
    2.8410    3.1840   -1.3560 N   0  0  0  0  0  0  0  0  0  0  0  0
    1.7230    5.5990   -0.8460 C   0  0  0  0  0  0  0  0  0  0  0  0
    0.4880    4.6340    0.7720 C   0  0  0  0  0  0  0  0  0  0  0  0
    1.1620    6.7910   -0.5670 C   0  0  0  0  0  0  0  0  0  0  0  0
    0.2590    6.9380    0.4190 C   0  0  0  0  0  0  0  0  0  0  0  0
   -0.0740    5.8170    1.0780 C   0  0  0  0  0  0  0  0  0  0  0  0
    3.1830    1.9700   -1.4700 C   0  0  0  0  0  0  0  0  0  0  0  0
    4.1890    1.5490   -2.5000 C   0  0  0  0  0  0  0  0  0  0  0  0
   -0.2980    8.1440    0.7230 C   0  0  0  0  0  0  0  0  0  0  0  0
    0.0530    9.1510    0.0670 O   0  0  0  0  0  0  0  0  0  0  0  0
   -1.1340    8.2610    1.6500 O   0  0  0  0  0  0  0  0  0  0  0  0
    1.2630   -0.7190   -0.1520 C   0  0  0  0  0  0  0  0  0  0  0  0
    0.9320   -1.8980    0.0790 O   0  0  0  0  0  0  0  0  0  0  0  0
   -0.3020   -2.0840    0.0490 C   0  0  0  0  0  0  0  0  0  0  0  0
   -0.8200   -0.9180   -0.3840 C   0  0  0  0  0  0  0  0  0  0  0  0
   -1.0310   -3.2070    0.3090 C   0  0  0  0  0  0  0  0  0  0  0  0
    0.1670   -0.0520   -0.5260 C   0  0  0  0  0  0  0  0  0  0  0  0
   -0.5330   -4.4260    0.6370 C   0  0  0  0  0  0  0  0  0  0  0  0
   -2.3820   -3.1660    0.2090 C   0  0  0  0  0  0  0  0  0  0  0  0
   -1.2930   -5.5260    0.8730 C   0  0  0  0  0  0  0  0  0  0  0  0
   -0.6860   -6.8800    1.2050 C   0  0  0  0  0  0  0  0  0  0  0  0
   -2.6370   -5.4290    0.8050 C   0  0  0  0  0  0  0  0  0  0  0  0
   -3.6290   -6.5470    1.0840 C   0  0  0  0  0  0  0  0  0  0  0  0
   -3.1480   -4.2420    0.4590 C   0  0  0  0  0  0  0  0  0  0  0  0
   -2.9510   -2.0970   -0.1240 N   0  0  0  0  0  0  0  0  0  0  0  0
   -3.9180   -2.2640   -1.0110 O   0  0  0  0  0  0  0  0  0  0  0  0
   -3.5780   -1.5700    0.9080 O   0  0  0  0  0  0  0  0  0  0  0  0
  1 18  1  0  0  0  0
  2  1  1  1  0  0  0
  2  3  1  0  0  0  0
  3  5  2  0  0  0  0
  4  6  1  0  0  0  0
  4  3  1  0  0  0  0
  6  9  2  0  0  0  0
  7  4  1  0  0  0  0
  8 10  2  0  0  0  0
  8  6  1  0  0  0  0
  9 12  1  0  0  0  0
 10 11  1  0  0  0  0
 11 15  1  0  0  0  0
 11 12  2  0  0  0  0
 13  7  2  0  0  0  0
 13  2  1  0  0  0  0
 14 13  1  0  0  0  0
 15 17  1  0  0  0  0
 16 15  2  0  0  0  0
 18 19  1  0  0  0  0
 20 19  1  0  0  0  0
 20 22  1  0  0  0  0
 21 20  2  0  0  0  0
 22 24  1  0  0  0  0
 23 21  1  0  0  0  0
 23 18  2  0  0  0  0
 24 26  2  0  0  0  0
 25 22  2  0  0  0  0
 25 30  1  0  0  0  0
 26 27  1  0  0  0  0
 28 26  1  0  0  0  0
 28 29  1  0  0  0  0
 30 28  2  0  0  0  0
 31 25  1  0  0  0  0
 31 33  1  0  0  0  0
 32 31  1  0  0  0  0
M  END
