pdbs/aod5-30.pdb
 OpenBabel07211515343D

 37 40  0  0  0  0  0  0  0  0999 V2000
   -3.4070   -6.2880    0.8340 C   0  0  0  0  0  0  0  0  0  0  0  0
   -2.1010   -6.1770    0.5050 C   0  0  0  0  0  0  0  0  0  0  0  0
   -1.5360   -4.9640    0.6560 C   0  0  0  0  0  0  0  0  0  0  0  0
   -2.2100   -3.8880    1.1010 C   0  0  0  0  0  0  0  0  0  0  0  0
   -3.5270   -3.9700    1.3770 C   0  0  0  0  0  0  0  0  0  0  0  0
   -4.0530   -5.2060    1.3080 C   0  0  0  0  0  0  0  0  0  0  0  0
   -1.5500   -2.8200    1.2710 N   0  0  0  0  0  0  0  0  0  0  0  0
   -2.1260   -1.8280    1.7980 C   0  0  0  0  0  0  0  0  0  0  0  0
   -3.4290   -1.8030    2.1200 C   0  0  0  0  0  0  0  0  0  0  0  0
   -4.1910   -2.8800    1.8290 C   0  0  0  0  0  0  0  0  0  0  0  0
   -3.9040   -0.6730    2.6030 C   0  0  0  0  0  0  0  0  0  0  0  0
   -4.3270    0.3170    3.0340 N   0  0  0  0  0  0  0  0  0  0  0  0
   -5.4340   -2.7450    2.0850 N   0  0  0  0  0  0  0  0  0  0  0  0
   -5.5940   -1.9490    2.7540 H   0  0  0  0  0  0  0  0  0  0  0  0
   -6.5700   -3.2470    1.7900 C   0  0  0  0  0  0  0  0  0  0  0  0
   -7.5590   -2.9100    2.6450 C   0  0  0  0  0  0  0  0  0  0  0  0
   -8.8210   -3.3770    2.5780 C   0  0  0  0  0  0  0  0  0  0  0  0
   -9.1250   -4.1310    1.5040 C   0  0  0  0  0  0  0  0  0  0  0  0
  -10.7380   -4.7090    1.2550 C   0  0  0  0  0  0  0  0  0  0  0  0
   -8.1900   -4.4270    0.5900 C   0  0  0  0  0  0  0  0  0  0  0  0
   -6.9230   -3.9970    0.7230 C   0  0  0  0  0  0  0  0  0  0  0  0
   -5.9080   -4.2690   -0.6600 C   0  0  0  0  0  0  0  0  0  0  0  0
   -9.7660   -2.9680    3.4870 O   0  0  0  0  0  0  0  0  0  0  0  0
   -9.8070   -3.7530    4.6570 C   0  0  0  0  0  0  0  0  0  0  0  0
   -4.0240   -7.5170    0.8440 O   0  0  0  0  0  0  0  0  0  0  0  0
   -4.5670   -7.9030   -0.3990 C   0  0  0  0  0  0  0  0  0  0  0  0
   -1.4340   -7.3070    0.0930 O   0  0  0  0  0  0  0  0  0  0  0  0
   -0.0460   -7.2600   -0.1100 C   0  0  0  0  0  0  0  0  0  0  0  0
    0.4370   -8.6600   -0.5000 C   0  0  0  0  0  0  0  0  0  0  0  0
    1.9640   -8.7020   -0.7000 C   0  0  0  0  0  0  0  0  0  0  0  0
    2.4590   -9.9480   -1.2810 N   0  0  0  0  0  0  0  0  0  0  0  0
    3.8920   -9.8590   -1.5320 C   0  0  0  0  0  0  0  0  0  0  0  0
    4.4300  -11.1450   -2.1790 C   0  0  0  0  0  0  0  0  0  0  0  0
    4.1630  -12.2970   -1.3320 N   0  0  0  0  0  0  0  0  0  0  0  0
    4.6890  -13.5190   -1.9190 C   0  0  0  0  0  0  0  0  0  0  0  0
    2.7330  -12.3980   -1.0890 C   0  0  0  0  0  0  0  0  0  0  0  0
    2.1880  -11.1100   -0.4480 C   0  0  0  0  0  0  0  0  0  0  0  0
  1 25  1  0  0  0  0
  1  6  2  0  0  0  0
  2  3  2  0  0  0  0
  2  1  1  0  0  0  0
  3  4  1  0  0  0  0
  4  7  2  0  0  0  0
  4  5  1  0  0  0  0
  5 10  2  0  0  0  0
  6  5  1  0  0  0  0
  7  8  1  0  0  0  0
  8  9  2  0  0  0  0
  9 11  1  0  0  0  0
 10 13  1  0  0  0  0
 10  9  1  0  0  0  0
 11 12  3  0  0  0  0
 13 14  1  0  0  0  0
 15 13  1  0  0  0  0
 15 16  2  0  0  0  0
 17 16  1  0  0  0  0
 17 23  1  0  0  0  0
 18 17  2  0  0  0  0
 19 18  1  0  0  0  0
 20 21  2  0  0  0  0
 20 18  1  0  0  0  0
 21 15  1  0  0  0  0
 22 21  1  0  0  0  0
 23 24  1  0  0  0  0
 26 25  1  0  0  0  0
 27  2  1  0  0  0  0
 28 27  1  0  0  0  0
 29 28  1  0  0  0  0
 30 29  1  0  0  0  0
 31 30  1  0  0  0  0
 31 37  1  0  0  0  0
 32 31  1  0  0  0  0
 33 32  1  0  0  0  0
 33 34  1  0  0  0  0
 34 36  1  0  0  0  0
 35 34  1  0  0  0  0
 36 37  1  0  0  0  0
M  END
