pdbs/aod5-87.pdb
 OpenBabel07211515343D

 63 68  0  0  1  0  0  0  0  0999 V2000
   -0.5380    0.0300    1.0000 C   0  0  1  0  0  0  0  0  0  0  0  0
    2.8400    1.8860    1.4740 C   0  0  2  0  0  0  0  0  0  0  0  0
    1.8210    0.7680    1.5130 C   0  0  2  0  0  0  0  0  0  0  0  0
    2.2260   -0.6890    1.3640 C   0  0  0  0  0  0  0  0  0  0  0  0
    1.6070   -1.1020    0.0140 C   0  0  2  0  0  0  0  0  0  0  0  0
    1.9380   -0.2100   -1.2400 C   0  0  2  0  0  0  0  0  0  0  0  0
    3.3840    0.2780   -1.6430 C   0  0  1  0  0  0  0  0  0  0  0  0
    4.1180    1.4890   -0.9200 C   0  0  2  0  0  0  0  0  0  0  0  0
    3.2140    2.3060    0.0370 C   0  0  0  0  0  0  0  0  0  0  0  0
    4.2750   -0.5700   -2.5880 C   0  0  1  0  0  0  0  0  0  0  0  0
    5.3890    0.2580   -3.2920 C   0  0  1  0  0  0  0  0  0  0  0  0
    5.5670    1.7590   -3.0370 C   0  0  0  0  0  0  0  0  0  0  0  0
    4.5410    2.4140   -2.1090 C   0  0  2  0  0  0  0  0  0  0  0  0
    5.4810   -1.3640   -2.0720 C   0  0  0  0  0  0  0  0  0  0  0  0
    6.4140   -0.5130   -2.7080 O   0  0  0  0  0  0  0  0  0  0  0  0
    2.7740    3.3620   -0.3700 O   0  0  0  0  0  0  0  0  0  0  0  0
    0.0800   -1.1840    0.2660 C   0  0  0  0  0  0  0  0  0  0  0  0
    0.4970    1.0470    1.4840 C   0  0  1  0  0  0  0  0  0  0  0  0
   -0.0870    2.4000    1.8300 C   0  0  0  0  0  0  0  0  0  0  0  0
    1.6820   -1.4330    2.6200 C   0  0  0  0  0  0  0  0  0  0  0  0
    3.7050   -1.1140    1.3940 C   0  0  0  0  0  0  0  0  0  0  0  0
    5.4460    1.2800   -0.1420 C   0  0  0  0  0  0  0  0  0  0  0  0
   -1.4400    0.6520    0.1080 O   0  0  0  0  0  0  0  0  0  0  0  0
   -2.6620    0.0960   -0.0990 C   0  0  0  0  0  0  0  0  0  0  0  0
   -3.1820   -0.7590    0.5820 O   0  0  0  0  0  0  0  0  0  0  0  0
   -3.3210    0.6750   -1.3490 C   0  0  1  0  0  0  0  0  0  0  0  0
   -4.3430    1.7620   -1.0140 C   0  0  2  0  0  0  0  0  0  0  0  0
   -3.6220    3.0350   -0.6180 C   0  0  0  0  0  0  0  0  0  0  0  0
   -3.3410    3.3230    0.6660 C   0  0  0  0  0  0  0  0  0  0  0  0
   -2.6920    4.4510    0.9940 C   0  0  0  0  0  0  0  0  0  0  0  0
   -2.2970    5.3040    0.0380 C   0  0  0  0  0  0  0  0  0  0  0  0
   -2.5660    5.0280   -1.2470 C   0  0  0  0  0  0  0  0  0  0  0  0
   -3.2280    3.9050   -1.5650 C   0  0  0  0  0  0  0  0  0  0  0  0
   -5.1970    1.2770    0.0760 N   0  0  0  0  0  0  0  0  0  0  0  0
   -6.3880    1.8550    0.4120 C   0  0  0  0  0  0  0  0  0  0  0  0
   -6.8110    2.8010   -0.2070 O   0  0  0  0  0  0  0  0  0  0  0  0
   -4.8580    0.5210    0.6720 H   0  0  0  0  0  0  0  0  0  0  0  0
   -6.9920    1.3350    1.5140 O   0  0  0  0  0  0  0  0  0  0  0  0
   -7.9330    2.0470    2.2590 C   0  0  0  0  0  0  0  0  0  0  0  0
   -9.2840    2.0820    1.5340 C   0  0  0  0  0  0  0  0  0  0  0  0
   -8.1030    1.2650    3.5720 C   0  0  0  0  0  0  0  0  0  0  0  0
   -7.4450    3.4620    2.6020 C   0  0  0  0  0  0  0  0  0  0  0  0
   -2.3740    1.1640   -2.2820 O   0  0  0  0  0  0  0  0  0  0  0  0
   -1.9380    1.9610   -1.9540 H   0  0  0  0  0  0  0  0  0  0  0  0
    2.0220   -2.4240   -0.2350 O   0  0  0  0  0  0  0  0  0  0  0  0
    1.9530   -2.6860   -1.1530 H   0  0  0  0  0  0  0  0  0  0  0  0
    1.0980    0.9120   -1.1780 O   0  0  0  0  0  0  0  0  0  0  0  0
    0.4330    1.6680   -2.1310 C   0  0  0  0  0  0  0  0  0  0  0  0
   -0.2000    2.5790   -1.6180 O   0  0  0  0  0  0  0  0  0  0  0  0
    0.3130    1.5650   -3.4980 C   0  0  0  0  0  0  0  0  0  0  0  0
    0.8300    0.5720   -4.2420 C   0  0  0  0  0  0  0  0  0  0  0  0
    0.6960    0.5050   -5.5770 C   0  0  0  0  0  0  0  0  0  0  0  0
    0.0150    1.4510   -6.2340 C   0  0  0  0  0  0  0  0  0  0  0  0
   -0.5270    2.4520   -5.5290 C   0  0  0  0  0  0  0  0  0  0  0  0
   -0.3770    2.4990   -4.1950 C   0  0  0  0  0  0  0  0  0  0  0  0
    3.9430    1.6700    2.3370 O   0  0  0  0  0  0  0  0  0  0  0  0
    3.6230    1.3670    3.1880 H   0  0  0  0  0  0  0  0  0  0  0  0
    3.5950   -1.2190   -3.6220 O   0  0  0  0  0  0  0  0  0  0  0  0
    3.1550   -2.4960   -3.4880 C   0  0  0  0  0  0  0  0  0  0  0  0
    3.1640   -3.1250   -2.4590 O   0  0  0  0  0  0  0  0  0  0  0  0
    2.6370   -3.0190   -4.8130 C   0  0  0  0  0  0  0  0  0  0  0  0
    5.0390    3.6480   -1.6390 O   0  0  0  0  0  0  0  0  0  0  0  0
    4.3090    4.1360   -1.2410 H   0  0  0  0  0  0  0  0  0  0  0  0
  1 23  1  6  0  0  0
  1 18  1  0  0  0  0
  2  3  1  0  0  0  0
  2 56  1  6  0  0  0
  3  4  1  6  0  0  0
  4 21  1  0  0  0  0
  4 20  1  0  0  0  0
  5 45  1  6  0  0  0
  5 17  1  0  0  0  0
  5  4  1  0  0  0  0
  6 47  1  1  0  0  0
  6  5  1  0  0  0  0
  7 10  1  1  0  0  0
  7  6  1  0  0  0  0
  7  8  1  0  0  0  0
  8 22  1  1  0  0  0
  8  9  1  0  0  0  0
  9  2  1  0  0  0  0
 10 58  1  6  0  0  0
 10 14  1  0  0  0  0
 11 12  1  1  0  0  0
 11 15  1  0  0  0  0
 11 10  1  0  0  0  0
 12 13  1  0  0  0  0
 13 62  1  1  0  0  0
 13  8  1  0  0  0  0
 15 14  1  0  0  0  0
 16  9  2  0  0  0  0
 17  1  1  0  0  0  0
 18  3  1  0  0  0  0
 18 19  1  6  0  0  0
 24 23  1  0  0  0  0
 24 25  2  0  0  0  0
 26 43  1  1  0  0  0
 26 27  1  0  0  0  0
 26 24  1  0  0  0  0
 27 28  1  1  0  0  0
 27 34  1  0  0  0  0
 28 29  2  0  0  0  0
 29 30  1  0  0  0  0
 31 30  2  0  0  0  0
 32 31  1  0  0  0  0
 33 32  2  0  0  0  0
 33 28  1  0  0  0  0
 34 35  1  0  0  0  0
 34 37  1  0  0  0  0
 35 38  1  0  0  0  0
 36 35  2  0  0  0  0
 38 39  1  0  0  0  0
 39 42  1  0  0  0  0
 39 41  1  0  0  0  0
 40 39  1  0  0  0  0
 43 44  1  0  0  0  0
 46 45  1  0  0  0  0
 48 49  2  0  0  0  0
 48 47  1  0  0  0  0
 50 48  1  0  0  0  0
 51 50  2  0  0  0  0
 52 51  1  0  0  0  0
 53 52  2  0  0  0  0
 53 54  1  0  0  0  0
 54 55  2  0  0  0  0
 55 50  1  0  0  0  0
 56 57  1  0  0  0  0
 58 59  1  0  0  0  0
 59 60  2  0  0  0  0
 61 59  1  0  0  0  0
 62 63  1  0  0  0  0
M  END
