pdbs/aod5-10.pdb
 OpenBabel07211515343D

 40 44  0  0  0  0  0  0  0  0999 V2000
   -2.7460   -6.0620   -1.0680 C   0  0  0  0  0  0  0  0  0  0  0  0
   -3.6340   -5.2430   -1.1040 O   0  0  0  0  0  0  0  0  0  0  0  0
   -2.9970   -7.3920   -1.2490 N   0  0  0  0  0  0  0  0  0  0  0  0
   -2.2150   -8.0250   -1.2060 H   0  0  0  0  0  0  0  0  0  0  0  0
   -1.4370   -5.7280   -0.8510 C   0  0  0  0  0  0  0  0  0  0  0  0
   -0.4440   -6.6380   -0.8050 C   0  0  0  0  0  0  0  0  0  0  0  0
    0.8300   -6.2730   -0.5910 C   0  0  0  0  0  0  0  0  0  0  0  0
    1.1710   -4.9860   -0.4160 C   0  0  0  0  0  0  0  0  0  0  0  0
    2.6130   -4.5920   -0.1780 C   0  0  0  0  0  0  0  0  0  0  0  0
    0.1880   -4.0690   -0.4600 C   0  0  0  0  0  0  0  0  0  0  0  0
   -1.0870   -4.4370   -0.6730 C   0  0  0  0  0  0  0  0  0  0  0  0
    0.4660   -2.7930   -0.2950 C   0  0  0  0  0  0  0  0  0  0  0  0
    0.7270   -1.6190   -0.1450 C   0  0  0  0  0  0  0  0  0  0  0  0
    1.0130   -0.3490    0.0170 C   0  0  0  0  0  0  0  0  0  0  0  0
    2.2280    0.2070    0.1360 C   0  0  0  0  0  0  0  0  0  0  0  0
    2.1230    1.4600    0.2770 N   0  0  0  0  0  0  0  0  0  0  0  0
    0.8770    1.6800    0.2470 C   0  0  0  0  0  0  0  0  0  0  0  0
    0.2650    2.8680    0.3580 C   0  0  0  0  0  0  0  0  0  0  0  0
    0.1890    0.6170    0.0930 N   0  0  0  0  0  0  0  0  0  0  0  0
   -1.0760    2.8510    0.2960 C   0  0  0  0  0  0  0  0  0  0  0  0
   -1.6780    1.6610    0.1310 C   0  0  0  0  0  0  0  0  0  0  0  0
   -1.0450    0.5670    0.0320 N   0  0  0  0  0  0  0  0  0  0  0  0
   -4.1190   -8.1030   -1.4900 C   0  0  0  0  0  0  0  0  0  0  0  0
   -3.9510   -9.4320   -1.6140 C   0  0  0  0  0  0  0  0  0  0  0  0
   -4.9550  -10.3020   -1.8450 C   0  0  0  0  0  0  0  0  0  0  0  0
   -6.2020   -9.8030   -2.0000 C   0  0  0  0  0  0  0  0  0  0  0  0
   -6.3820   -8.4750   -1.8710 C   0  0  0  0  0  0  0  0  0  0  0  0
   -5.3690   -7.6340   -1.6200 C   0  0  0  0  0  0  0  0  0  0  0  0
   -4.6080  -11.7730   -2.0200 C   0  0  0  0  0  0  0  0  0  0  0  0
   -3.3490  -11.9540   -2.3910 F   0  0  0  0  0  0  0  0  0  0  0  0
   -4.7520  -12.4010   -0.8620 F   0  0  0  0  0  0  0  0  0  0  0  0
   -5.3530  -12.4030   -2.9120 F   0  0  0  0  0  0  0  0  0  0  0  0
   -7.4270  -10.6630   -2.2740 C   0  0  0  0  0  0  0  0  0  0  0  0
   -7.5940  -11.6810   -1.2450 N   0  0  0  0  0  0  0  0  0  0  0  0
   -7.9460  -11.1020    0.0430 C   0  0  0  0  0  0  0  0  0  0  0  0
   -8.0720  -12.1960    1.1160 C   0  0  0  0  0  0  0  0  0  0  0  0
   -9.0690  -13.1840    0.7340 N   0  0  0  0  0  0  0  0  0  0  0  0
   -9.2100  -14.2120    1.7530 C   0  0  0  0  0  0  0  0  0  0  0  0
   -8.7190  -13.7610   -0.5540 C   0  0  0  0  0  0  0  0  0  0  0  0
   -8.5930  -12.6680   -1.6280 C   0  0  0  0  0  0  0  0  0  0  0  0
  1  5  1  0  0  0  0
  2  1  2  0  0  0  0
  3  4  1  0  0  0  0
  3  1  1  0  0  0  0
  5  6  2  0  0  0  0
  5 11  1  0  0  0  0
  6  7  1  0  0  0  0
  7  8  2  0  0  0  0
  8  9  1  0  0  0  0
 10  8  1  0  0  0  0
 10 12  1  0  0  0  0
 11 10  2  0  0  0  0
 12 13  3  0  0  0  0
 13 14  1  0  0  0  0
 14 19  1  0  0  0  0
 14 15  2  0  0  0  0
 15 16  1  0  0  0  0
 17 16  2  0  0  0  0
 17 18  1  0  0  0  0
 19 17  1  0  0  0  0
 20 18  2  0  0  0  0
 21 20  1  0  0  0  0
 22 19  1  0  0  0  0
 22 21  2  0  0  0  0
 23  3  1  0  0  0  0
 24 23  1  0  0  0  0
 25 24  2  0  0  0  0
 26 27  2  0  0  0  0
 26 25  1  0  0  0  0
 27 28  1  0  0  0  0
 28 23  2  0  0  0  0
 29 25  1  0  0  0  0
 29 31  1  0  0  0  0
 30 29  1  0  0  0  0
 32 29  1  0  0  0  0
 33 26  1  0  0  0  0
 33 34  1  0  0  0  0
 34 35  1  0  0  0  0
 35 36  1  0  0  0  0
 37 36  1  0  0  0  0
 37 38  1  0  0  0  0
 39 37  1  0  0  0  0
 40 34  1  0  0  0  0
 40 39  1  0  0  0  0
M  END
