pdbs/aod5-86.pdb
 OpenBabel07211515343D

 40 44  0  0  0  0  0  0  0  0999 V2000
   -2.9080    2.5750    3.4940 C   0  0  0  0  0  0  0  0  0  0  0  0
   -2.8520    1.5030    2.6170 C   0  0  0  0  0  0  0  0  0  0  0  0
   -1.6660    1.2680    1.9320 C   0  0  0  0  0  0  0  0  0  0  0  0
   -0.5230    2.0780    2.0710 C   0  0  0  0  0  0  0  0  0  0  0  0
   -0.6060    3.1730    2.9530 C   0  0  0  0  0  0  0  0  0  0  0  0
   -1.7880    3.3890    3.6530 C   0  0  0  0  0  0  0  0  0  0  0  0
    0.7010    1.8920    1.3800 C   0  0  0  0  0  0  0  0  0  0  0  0
    1.7250    2.7590    1.5750 N   0  0  0  0  0  0  0  0  0  0  0  0
    1.5270    3.7720    2.4360 C   0  0  0  0  0  0  0  0  0  0  0  0
    0.4110    4.0190    3.1390 N   0  0  0  0  0  0  0  0  0  0  0  0
   -4.0140    0.7040    2.3250 C   0  0  0  0  0  0  0  0  0  0  0  0
   -5.1960    0.9580    1.6610 C   0  0  0  0  0  0  0  0  0  0  0  0
   -5.9180   -0.2580    1.6510 C   0  0  0  0  0  0  0  0  0  0  0  0
   -5.1020   -1.1800    2.2630 C   0  0  0  0  0  0  0  0  0  0  0  0
   -3.9580   -0.6020    2.7130 O   0  0  0  0  0  0  0  0  0  0  0  0
    1.0640    0.9270    0.4910 N   0  0  0  0  0  0  0  0  0  0  0  0
    0.1700   -0.0040    0.1110 C   0  0  0  0  0  0  0  0  0  0  0  0
   -0.7040    0.2170   -0.9650 C   0  0  0  0  0  0  0  0  0  0  0  0
   -1.6050   -0.7620   -1.3780 C   0  0  0  0  0  0  0  0  0  0  0  0
   -2.6660   -0.3990   -2.6820 Cl  0  0  0  0  0  0  0  0  0  0  0  0
   -1.6170   -1.9960   -0.7390 C   0  0  0  0  0  0  0  0  0  0  0  0
   -0.7380   -2.2620    0.3030 C   0  0  0  0  0  0  0  0  0  0  0  0
    0.1520   -1.2710    0.7130 C   0  0  0  0  0  0  0  0  0  0  0  0
   -2.4430   -3.0010   -1.1550 O   0  0  0  0  0  0  0  0  0  0  0  0
   -1.5980   -4.0570   -1.5340 C   0  0  0  0  0  0  0  0  0  0  0  0
   -1.0500   -4.1540   -2.9390 C   0  0  0  0  0  0  0  0  0  0  0  0
    0.3060   -3.8940   -3.1480 C   0  0  0  0  0  0  0  0  0  0  0  0
    0.7810   -3.6150   -4.4280 C   0  0  0  0  0  0  0  0  0  0  0  0
   -0.1000   -3.5880   -5.5050 C   0  0  0  0  0  0  0  0  0  0  0  0
   -1.4470   -3.8590   -5.2910 C   0  0  0  0  0  0  0  0  0  0  0  0
   -1.9300   -4.1430   -4.0190 C   0  0  0  0  0  0  0  0  0  0  0  0
   -2.2990   -3.8190   -6.3240 F   0  0  0  0  0  0  0  0  0  0  0  0
   -5.5790   -2.5170    2.7540 C   0  0  0  0  0  0  0  0  0  0  0  0
   -6.0380   -3.5160    1.8340 N   0  0  0  0  0  0  0  0  0  0  0  0
   -6.7340   -3.7870    0.6130 C   0  0  0  0  0  0  0  0  0  0  0  0
   -8.0880   -3.1220    0.3410 C   0  0  0  0  0  0  0  0  0  0  0  0
   -8.8630   -3.2920   -1.2630 S   0  0  0  0  0  0  0  0  0  0  0  0
  -10.2750   -2.9800   -1.1510 O   0  0  0  0  0  0  0  0  0  0  0  0
   -8.4210   -4.5250   -1.8830 O   0  0  0  0  0  0  0  0  0  0  0  0
   -8.0070   -1.9100   -2.0140 C   0  0  0  0  0  0  0  0  0  0  0  0
  1  6  1  0  0  0  0
  2  1  2  0  0  0  0
  3  4  2  0  0  0  0
  3  2  1  0  0  0  0
  4  5  1  0  0  0  0
  5 10  1  0  0  0  0
  5  6  2  0  0  0  0
  7  8  2  0  0  0  0
  7  4  1  0  0  0  0
  8  9  1  0  0  0  0
  9 10  2  0  0  0  0
 11  2  1  0  0  0  0
 11 15  1  0  0  0  0
 12 11  2  0  0  0  0
 13 12  1  0  0  0  0
 13 14  2  0  0  0  0
 14 15  1  0  0  0  0
 14 33  1  0  0  0  0
 16  7  1  0  0  0  0
 17 16  1  0  0  0  0
 17 23  2  0  0  0  0
 18 17  1  0  0  0  0
 19 18  2  0  0  0  0
 19 21  1  0  0  0  0
 20 19  1  0  0  0  0
 21 22  2  0  0  0  0
 22 23  1  0  0  0  0
 24 21  1  0  0  0  0
 25 24  1  0  0  0  0
 26 25  1  0  0  0  0
 27 26  1  0  0  0  0
 28 27  2  0  0  0  0
 29 30  2  0  0  0  0
 29 28  1  0  0  0  0
 30 31  1  0  0  0  0
 31 26  2  0  0  0  0
 32 30  1  0  0  0  0
 34 33  1  0  0  0  0
 35 34  1  0  0  0  0
 36 35  2  0  0  0  0
 37 38  2  0  0  0  0
 37 36  1  0  0  0  0
 39 37  2  0  0  0  0
 40 37  1  0  0  0  0
M  END
