pdbs/as.pdb
 OpenBabel07211515343D

 56 58  0  0  1  0  0  0  0  0999 V2000
    1.2820   -1.4700    2.8600 O   0  0  0  0  0  0  0  0  0  0  0  0
    1.1190   -2.6190    5.2510 O   0  0  0  0  0  0  0  0  0  0  0  0
    0.6490   -2.6130    3.5800 P   0  0  1  0  0  0  0  0  0  0  0  0
   -0.9000   -2.8980    3.1490 O   0  0  0  0  0  0  0  0  0  0  0  0
   -1.7930   -1.6070    2.7630 P   0  0  2  0  0  0  0  0  0  0  0  0
   -1.7880   -0.5230    3.7850 O   0  0  0  0  0  0  0  0  0  0  0  0
   -3.4600   -1.8830    2.3450 O   0  0  0  0  0  0  0  0  0  0  0  0
   -1.3800   -0.9470    1.3060 O   0  0  0  0  0  0  0  0  0  0  0  0
   -1.9810    0.2510    0.8750 C   0  0  0  0  0  0  0  0  0  0  0  0
   -1.4100    0.7160   -0.4860 C   0  0  0  0  0  0  0  0  0  0  0  0
   -1.4980   -0.4640   -1.4830 C   0  0  0  0  0  0  0  0  0  0  0  0
    0.0730    1.0880   -0.2690 C   0  0  0  0  0  0  0  0  0  0  0  0
   -2.2670    1.9060   -1.0260 C   0  0  1  0  0  0  0  0  0  0  0  0
   -2.2960    3.1430   -0.1050 C   0  0  0  0  0  0  0  0  0  0  0  0
   -1.9840    2.3970   -2.4490 C   0  0  0  0  0  0  0  0  0  0  0  0
   -0.9460    2.2370   -3.0410 O   0  0  0  0  0  0  0  0  0  0  0  0
   -3.0270    3.0850   -3.0170 N   0  0  0  0  0  0  0  0  0  0  0  0
   -3.9040    3.1530   -2.5000 H   0  0  0  0  0  0  0  0  0  0  0  0
   -2.9650    3.6270   -4.3800 C   0  0  0  0  0  0  0  0  0  0  0  0
   -3.9510    4.7950   -4.5620 C   0  0  0  0  0  0  0  0  0  0  0  0
   -3.8960    5.4190   -5.9520 C   0  0  0  0  0  0  0  0  0  0  0  0
   -3.2210    4.9780   -6.8490 O   0  0  0  0  0  0  0  0  0  0  0  0
   -4.6760    6.5330   -6.1090 N   0  0  0  0  0  0  0  0  0  0  0  0
   -5.2070    6.8840   -5.3120 H   0  0  0  0  0  0  0  0  0  0  0  0
   -4.7030    7.2770   -7.3750 C   0  0  0  0  0  0  0  0  0  0  0  0
   -5.8010    8.3530   -7.3720 C   0  0  0  0  0  0  0  0  0  0  0  0
   -5.7560    9.2190   -8.9770 S   0  0  0  0  0  0  0  0  0  0  0  0
   -7.0200   10.5220   -9.0280 C   0  0  0  0  0  0  0  0  0  0  0  0
   -7.7560   10.7400   -8.0940 O   0  0  0  0  0  0  0  0  0  0  0  0
   -7.0730   11.3040  -10.3270 C   0  0  0  0  0  0  0  0  0  0  0  0
    1.4610   -3.8980    2.8550 O   0  0  0  0  0  0  0  0  0  0  0  0
    1.7060   -5.0790    3.5870 C   0  0  0  0  0  0  0  0  0  0  0  0
    2.8030   -5.9330    2.9280 C   0  0  2  0  0  0  0  0  0  0  0  0
    3.2980   -7.1010    3.8030 C   0  0  2  0  0  0  0  0  0  0  0  0
    4.1890   -6.2840    4.7500 C   0  0  2  0  0  0  0  0  0  0  0  0
    4.8260   -5.2820    3.8000 C   0  0  1  0  0  0  0  0  0  0  0  0
    3.9520   -5.1600    2.6910 O   0  0  0  0  0  0  0  0  0  0  0  0
    4.1170   -8.1760    3.0420 C   0  0  0  0  0  0  0  0  0  0  0  0
    3.2210   -9.4370    2.0310 P   0  0  0  0  0  0  0  0  0  0  0  0
    1.7400   -9.4510    2.1870 O   0  0  0  0  0  0  0  0  0  0  0  0
    3.7930  -11.0590    2.2900 O   0  0  0  0  0  0  0  0  0  0  0  0
    3.6070   -9.4580    0.3380 O   0  0  0  0  0  0  0  0  0  0  0  0
    5.1470   -7.0560    5.4270 O   0  0  0  0  0  0  0  0  0  0  0  0
    4.7450   -7.4890    6.1840 H   0  0  0  0  0  0  0  0  0  0  0  0
    5.2250   -4.0310    4.4580 N   0  0  0  0  0  0  0  0  0  0  0  0
    4.5550   -2.9560    4.4760 C   0  0  0  0  0  0  0  0  0  0  0  0
    5.1920   -2.0670    5.1170 N   0  0  0  0  0  0  0  0  0  0  0  0
    6.2620   -2.6240    5.5050 C   0  0  0  0  0  0  0  0  0  0  0  0
    7.2820   -2.1080    6.2150 C   0  0  0  0  0  0  0  0  0  0  0  0
    6.3150   -3.9020    5.0870 C   0  0  0  0  0  0  0  0  0  0  0  0
    8.2650   -2.8680    6.4600 N   0  0  0  0  0  0  0  0  0  0  0  0
    8.2180   -4.0560    6.0220 C   0  0  0  0  0  0  0  0  0  0  0  0
    7.3130   -4.6290    5.3490 N   0  0  0  0  0  0  0  0  0  0  0  0
    7.2320   -0.9010    6.5970 N   0  0  0  0  0  0  0  0  0  0  0  0
    6.3990   -0.3070    6.3670 H   0  0  0  0  0  0  0  0  0  0  0  0
    8.0250   -0.4870    7.1460 H   0  0  0  0  0  0  0  0  0  0  0  0
  1  3  2  0  0  0  0
  3 31  1  6  0  0  0
  3  2  1  0  0  0  0
  4  3  1  0  0  0  0
  5  8  1  6  0  0  0
  5  4  1  0  0  0  0
  5  6  1  0  0  0  0
  7  5  2  0  0  0  0
  9  8  1  0  0  0  0
 10 12  1  0  0  0  0
 10  9  1  0  0  0  0
 11 10  1  0  0  0  0
 13 15  1  1  0  0  0
 13 10  1  0  0  0  0
 13 14  1  0  0  0  0
 16 15  2  0  0  0  0
 17 18  1  0  0  0  0
 17 15  1  0  0  0  0
 19 17  1  0  0  0  0
 20 19  1  0  0  0  0
 21 20  1  0  0  0  0
 22 21  2  0  0  0  0
 23 21  1  0  0  0  0
 23 24  1  0  0  0  0
 25 26  1  0  0  0  0
 25 23  1  0  0  0  0
 27 26  1  0  0  0  0
 28 27  1  0  0  0  0
 28 29  2  0  0  0  0
 30 28  1  0  0  0  0
 31 32  1  0  0  0  0
 33 32  1  1  0  0  0
 33 34  1  0  0  0  0
 34 38  1  6  0  0  0
 34 35  1  0  0  0  0
 35 43  1  6  0  0  0
 36 45  1  1  0  0  0
 36 35  1  0  0  0  0
 37 33  1  0  0  0  0
 37 36  1  0  0  0  0
 39 40  1  0  0  0  0
 39 41  1  0  0  0  0
 39 38  1  0  0  0  0
 42 39  2  0  0  0  0
 43 44  1  0  0  0  0
 45 46  1  0  0  0  0
 45 50  1  0  0  0  0
 46 47  2  0  0  0  0
 47 48  1  0  0  0  0
 48 49  2  0  0  0  0
 49 51  1  0  0  0  0
 49 54  1  0  0  0  0
 50 53  2  0  0  0  0
 50 48  1  0  0  0  0
 52 51  2  0  0  0  0
 53 52  1  0  0  0  0
 54 56  1  0  0  0  0
 55 54  1  0  0  0  0
M  END
