pdbs/bl.pdb
 OpenBabel07211515343D

 73 75  0  0  1  0  0  0  0  0999 V2000
    0.8430   -4.2980    1.6570 C   0  0  0  0  0  0  0  0  0  0  0  0
    2.3890   -2.7000    2.8430 C   0  0  0  0  0  0  0  0  0  0  0  0
    0.9140   -3.1130    2.6490 C   0  0  0  0  0  0  0  0  0  0  0  0
    0.0170   -1.9460    2.1190 C   0  0  1  0  0  0  0  0  0  0  0  0
   -0.0430   -0.7160    3.0470 C   0  0  0  0  0  0  0  0  0  0  0  0
    0.2670   -1.4360    0.6960 C   0  0  0  0  0  0  0  0  0  0  0  0
    1.2930   -1.5780    0.0790 O   0  0  0  0  0  0  0  0  0  0  0  0
   -0.7930   -0.7470    0.1560 N   0  0  0  0  0  0  0  0  0  0  0  0
   -1.6600   -0.6890    0.6910 H   0  0  0  0  0  0  0  0  0  0  0  0
   -0.7620   -0.1970   -1.2070 C   0  0  0  0  0  0  0  0  0  0  0  0
   -1.7560    0.9670   -1.3940 C   0  0  0  0  0  0  0  0  0  0  0  0
   -1.6930    1.5780   -2.7920 C   0  0  0  0  0  0  0  0  0  0  0  0
   -1.0260    1.1090   -3.6810 O   0  0  0  0  0  0  0  0  0  0  0  0
   -2.4460    2.7120   -2.9690 N   0  0  0  0  0  0  0  0  0  0  0  0
   -2.9720    3.0880   -2.1810 H   0  0  0  0  0  0  0  0  0  0  0  0
   -2.4210    3.4460   -4.2420 C   0  0  0  0  0  0  0  0  0  0  0  0
   -3.4890    4.5530   -4.3370 C   0  0  0  0  0  0  0  0  0  0  0  0
   -3.2630    5.3560   -5.9600 S   0  0  0  0  0  0  0  0  0  0  0  0
   -4.5750    6.6170   -5.9570 C   0  0  0  0  0  0  0  0  0  0  0  0
   -4.5970    7.4500   -7.2430 C   0  0  0  0  0  0  0  0  0  0  0  0
   -3.8110    7.3240   -8.1510 O   0  0  0  0  0  0  0  0  0  0  0  0
   -5.6030    8.3800   -7.2970 N   0  0  0  0  0  0  0  0  0  0  0  0
   -6.2640    8.4440   -6.5230 H   0  0  0  0  0  0  0  0  0  0  0  0
   -5.7860    9.2420   -8.4710 C   0  0  0  0  0  0  0  0  0  0  0  0
   -6.8690   10.3080   -8.2370 C   0  0  0  0  0  0  0  0  0  0  0  0
   -7.0680   11.1820   -9.4890 C   0  0  0  0  0  0  0  0  0  0  0  0
   -8.1440   12.2640   -9.2990 C   0  0  0  0  0  0  0  0  0  0  0  0
   -8.3920   13.0790  -10.5830 C   0  0  2  0  0  0  0  0  0  0  0  0
   -7.1790   13.8080  -10.9840 N   0  0  0  0  0  0  0  0  0  0  0  0
   -6.7550   14.4340  -10.3000 H   0  0  0  0  0  0  0  0  0  0  0  0
   -6.6850   13.8080  -12.2600 C   0  0  0  0  0  0  0  0  0  0  0  0
   -7.1710   13.1630  -13.1560 O   0  0  0  0  0  0  0  0  0  0  0  0
   -5.4680   14.6920  -12.4480 C   0  0  0  0  0  0  0  0  0  0  0  0
   -9.5220   14.0820  -10.3830 C   0  0  0  0  0  0  0  0  0  0  0  0
  -10.7750   13.5570  -10.3990 N   0  0  0  0  0  0  0  0  0  0  0  0
  -10.9310   12.5690  -10.5470 H   0  0  0  0  0  0  0  0  0  0  0  0
  -11.5550   14.1870  -10.2700 H   0  0  0  0  0  0  0  0  0  0  0  0
   -9.3390   15.2600  -10.2140 O   0  0  0  0  0  0  0  0  0  0  0  0
    0.3720   -3.5880    4.0180 C   0  0  0  0  0  0  0  0  0  0  0  0
    0.9990   -4.7700    4.4650 O   0  0  0  0  0  0  0  0  0  0  0  0
    0.5600   -5.4330    5.9160 P   0  0  1  0  0  0  0  0  0  0  0  0
    0.6450   -4.3690    6.9560 O   0  0  0  0  0  0  0  0  0  0  0  0
   -1.1270   -5.5690    5.5090 O   0  0  0  0  0  0  0  0  0  0  0  0
    1.3320   -6.8100    6.2820 O   0  0  0  0  0  0  0  0  0  0  0  0
    2.8280   -6.6690    6.9340 P   0  0  1  0  0  0  0  0  0  0  0  0
    3.5800   -5.4940    6.4040 O   0  0  0  0  0  0  0  0  0  0  0  0
    3.0500   -6.8260    8.6490 O   0  0  0  0  0  0  0  0  0  0  0  0
    3.6410   -7.9220    6.1540 O   0  0  0  0  0  0  0  0  0  0  0  0
    3.9950   -9.0900    6.8630 C   0  0  0  0  0  0  0  0  0  0  0  0
    5.0720   -9.9040    6.1190 C   0  0  1  0  0  0  0  0  0  0  0  0
    6.1630   -9.0760    5.8030 O   0  0  0  0  0  0  0  0  0  0  0  0
    7.1070   -9.1560    6.8540 C   0  0  2  0  0  0  0  0  0  0  0  0
    6.6000  -10.2010    7.8350 C   0  0  1  0  0  0  0  0  0  0  0  0
    5.6860  -11.0540    6.9470 C   0  0  2  0  0  0  0  0  0  0  0  0
    7.5130   -7.9260    7.5430 N   0  0  0  0  0  0  0  0  0  0  0  0
    8.5810   -7.8440    8.2100 C   0  0  0  0  0  0  0  0  0  0  0  0
    9.5500   -8.6060    8.4840 N   0  0  0  0  0  0  0  0  0  0  0  0
    8.5450   -6.5770    8.6660 C   0  0  0  0  0  0  0  0  0  0  0  0
   10.4350   -8.0730    9.2100 C   0  0  0  0  0  0  0  0  0  0  0  0
   10.5140   -6.9000    9.6820 N   0  0  0  0  0  0  0  0  0  0  0  0
    9.5550   -6.1110    9.4240 C   0  0  0  0  0  0  0  0  0  0  0  0
    7.4990   -5.9890    8.2580 N   0  0  0  0  0  0  0  0  0  0  0  0
    6.8560   -6.8440    7.5760 C   0  0  0  0  0  0  0  0  0  0  0  0
    9.5190   -4.9150    9.8410 N   0  0  0  0  0  0  0  0  0  0  0  0
    8.7090   -4.2950    9.6020 H   0  0  0  0  0  0  0  0  0  0  0  0
   10.3020   -4.5400   10.4300 H   0  0  0  0  0  0  0  0  0  0  0  0
    7.6660  -10.9130    8.4090 O   0  0  0  0  0  0  0  0  0  0  0  0
    8.2340  -10.3010    8.8830 H   0  0  0  0  0  0  0  0  0  0  0  0
    6.5210  -12.0840    6.1450 C   0  0  0  0  0  0  0  0  0  0  0  0
    5.6630  -13.4250    5.2130 P   0  0  0  0  0  0  0  0  0  0  0  0
    6.0190  -13.4980    3.5140 O   0  0  0  0  0  0  0  0  0  0  0  0
    6.3280  -15.0030    5.5120 O   0  0  0  0  0  0  0  0  0  0  0  0
    4.1890  -13.5120    5.4040 O   0  0  0  0  0  0  0  0  0  0  0  0
  1  3  1  0  0  0  0
  3  2  1  0  0  0  0
  3 39  1  0  0  0  0
  4  6  1  1  0  0  0
  4  3  1  0  0  0  0
  4  5  1  0  0  0  0
  7  6  2  0  0  0  0
  8  9  1  0  0  0  0
  8  6  1  0  0  0  0
 10  8  1  0  0  0  0
 11 10  1  0  0  0  0
 12 11  1  0  0  0  0
 13 12  2  0  0  0  0
 14 12  1  0  0  0  0
 14 15  1  0  0  0  0
 16 14  1  0  0  0  0
 17 16  1  0  0  0  0
 18 19  1  0  0  0  0
 18 17  1  0  0  0  0
 20 19  1  0  0  0  0
 21 20  2  0  0  0  0
 22 20  1  0  0  0  0
 22 23  1  0  0  0  0
 24 25  1  0  0  0  0
 24 22  1  0  0  0  0
 26 27  1  0  0  0  0
 26 25  1  0  0  0  0
 28 29  1  1  0  0  0
 28 34  1  0  0  0  0
 28 27  1  0  0  0  0
 29 30  1  0  0  0  0
 31 29  1  0  0  0  0
 32 31  2  0  0  0  0
 33 31  1  0  0  0  0
 34 38  2  0  0  0  0
 35 34  1  0  0  0  0
 35 37  1  0  0  0  0
 36 35  1  0  0  0  0
 39 40  1  0  0  0  0
 41 40  1  6  0  0  0
 41 44  1  0  0  0  0
 41 42  1  0  0  0  0
 43 41  2  0  0  0  0
 44 45  1  0  0  0  0
 45 48  1  6  0  0  0
 45 47  1  0  0  0  0
 46 45  2  0  0  0  0
 48 49  1  0  0  0  0
 50 49  1  1  0  0  0
 50 54  1  0  0  0  0
 51 50  1  0  0  0  0
 51 52  1  0  0  0  0
 52 55  1  1  0  0  0
 52 53  1  0  0  0  0
 53 67  1  6  0  0  0
 54 69  1  6  0  0  0
 54 53  1  0  0  0  0
 55 63  1  0  0  0  0
 55 56  1  0  0  0  0
 56 57  2  0  0  0  0
 56 58  1  0  0  0  0
 57 59  1  0  0  0  0
 58 61  2  0  0  0  0
 59 60  2  0  0  0  0
 61 60  1  0  0  0  0
 61 64  1  0  0  0  0
 62 58  1  0  0  0  0
 63 62  2  0  0  0  0
 64 66  1  0  0  0  0
 65 64  1  0  0  0  0
 67 68  1  0  0  0  0
 70 73  1  0  0  0  0
 70 72  1  0  0  0  0
 70 69  1  0  0  0  0
 71 70  2  0  0  0  0
M  END
