pdbs/blv1so.pdb
 OpenBabel07211515343D

 72 74  0  0  1  0  0  0  0  0999 V2000
    1.2800   -2.9770    2.2410 C   0  0  0  0  0  0  0  0  0  0  0  0
    2.8020   -2.8830    2.0070 C   0  0  0  0  0  0  0  0  0  0  0  0
    0.7130   -4.0380    1.2690 C   0  0  0  0  0  0  0  0  0  0  0  0
    1.0110   -3.4150    3.6960 C   0  0  0  0  0  0  0  0  0  0  0  0
    1.3910   -4.7500    3.9170 O   0  0  0  0  0  0  0  0  0  0  0  0
    1.1190   -5.4240    5.3950 P   0  0  2  0  0  0  0  0  0  0  0  0
   -0.5100   -5.8860    4.9900 O   0  0  0  0  0  0  0  0  0  0  0  0
    0.9650   -4.3620    6.4280 O   0  0  0  0  0  0  0  0  0  0  0  0
    2.1230   -6.6070    5.8220 O   0  0  0  0  0  0  0  0  0  0  0  0
    3.7040   -6.2390    5.9490 P   0  0  2  0  0  0  0  0  0  0  0  0
    4.5100   -6.1380    7.4860 O   0  0  0  0  0  0  0  0  0  0  0  0
    4.1820   -5.1630    5.0340 O   0  0  0  0  0  0  0  0  0  0  0  0
    4.3880   -7.5850    5.2190 O   0  0  0  0  0  0  0  0  0  0  0  0
    4.4460   -8.8060    5.9240 C   0  0  0  0  0  0  0  0  0  0  0  0
    5.5160   -9.7280    5.3160 C   0  0  1  0  0  0  0  0  0  0  0  0
    6.7310   -9.0300    5.2180 O   0  0  0  0  0  0  0  0  0  0  0  0
    7.4680   -9.2300    6.4110 C   0  0  2  0  0  0  0  0  0  0  0  0
    6.7010  -10.2570    7.2320 C   0  0  1  0  0  0  0  0  0  0  0  0
    5.8610  -10.9680    6.1640 C   0  0  2  0  0  0  0  0  0  0  0  0
    7.8340   -7.9990    7.1340 N   0  0  0  0  0  0  0  0  0  0  0  0
    8.6460   -7.9990    8.1020 C   0  0  0  0  0  0  0  0  0  0  0  0
    9.3380   -8.8540    8.7200 N   0  0  0  0  0  0  0  0  0  0  0  0
    8.7180   -6.6940    8.4240 C   0  0  0  0  0  0  0  0  0  0  0  0
   10.0590   -8.3750    9.6420 C   0  0  0  0  0  0  0  0  0  0  0  0
   10.2030   -7.1760   10.0210 N   0  0  0  0  0  0  0  0  0  0  0  0
    9.5300   -6.2880    9.4150 C   0  0  0  0  0  0  0  0  0  0  0  0
    7.9890   -6.0000    7.6550 N   0  0  0  0  0  0  0  0  0  0  0  0
    7.4130   -6.8280    6.8860 C   0  0  0  0  0  0  0  0  0  0  0  0
    9.6300   -5.0570    9.7000 N   0  0  0  0  0  0  0  0  0  0  0  0
   10.2770   -4.7450   10.4650 H   0  0  0  0  0  0  0  0  0  0  0  0
    9.0690   -4.3450    9.1710 H   0  0  0  0  0  0  0  0  0  0  0  0
    7.5390  -11.1330    7.9440 O   0  0  0  0  0  0  0  0  0  0  0  0
    7.0110  -11.7420    8.4650 H   0  0  0  0  0  0  0  0  0  0  0  0
    6.6700  -12.0250    5.3650 C   0  0  0  0  0  0  0  0  0  0  0  0
    5.7740  -13.5220    4.7500 P   0  0  0  0  0  0  0  0  0  0  0  0
    5.9090  -13.8510    3.0500 O   0  0  0  0  0  0  0  0  0  0  0  0
    6.5470  -15.0080    5.2200 O   0  0  0  0  0  0  0  0  0  0  0  0
    4.3480  -13.6430    5.1610 O   0  0  0  0  0  0  0  0  0  0  0  0
    0.5780   -1.6070    1.9980 C   0  0  1  0  0  0  0  0  0  0  0  0
    0.9990   -0.4800    2.9640 C   0  0  0  0  0  0  0  0  0  0  0  0
    0.6620   -1.1030    0.5580 C   0  0  0  0  0  0  0  0  0  0  0  0
   -0.2990   -1.6070   -0.2770 N   0  0  0  0  0  0  0  0  0  0  0  0
   -0.9840   -2.2590    0.1050 H   0  0  0  0  0  0  0  0  0  0  0  0
    1.4690   -0.2920    0.1770 O   0  0  0  0  0  0  0  0  0  0  0  0
   -0.4390   -1.1770   -1.6730 C   0  0  0  0  0  0  0  0  0  0  0  0
   -1.1100    0.2050   -1.7490 C   0  0  0  0  0  0  0  0  0  0  0  0
   -1.3420    0.7260   -3.1600 C   0  0  0  0  0  0  0  0  0  0  0  0
   -1.7720    2.0250   -3.2090 N   0  0  0  0  0  0  0  0  0  0  0  0
   -1.8410    2.5460   -2.3360 H   0  0  0  0  0  0  0  0  0  0  0  0
   -1.1700    0.0620   -4.1510 O   0  0  0  0  0  0  0  0  0  0  0  0
   -2.0210    2.7290   -4.4710 C   0  0  0  0  0  0  0  0  0  0  0  0
   -2.8910    3.9740   -4.2240 C   0  0  0  0  0  0  0  0  0  0  0  0
   -3.1430    4.8380   -5.8090 S   0  0  0  0  0  0  0  0  0  0  0  0
   -4.1700    6.2210   -5.2350 C   0  0  0  0  0  0  0  0  0  0  0  0
   -4.4140    7.3430   -6.5940 S   0  0  2  0  0  0  0  0  0  0  0  0
   -3.2400    8.0590   -7.0770 O   0  0  0  0  0  0  0  0  0  0  0  0
   -5.8390    8.3490   -6.2320 C   0  0  0  0  0  0  0  0  0  0  0  0
   -6.1990    9.2930   -7.3920 C   0  0  0  0  0  0  0  0  0  0  0  0
   -7.4100   10.1850   -7.0710 C   0  0  0  0  0  0  0  0  0  0  0  0
   -7.7630   11.1130   -8.2470 C   0  0  0  0  0  0  0  0  0  0  0  0
   -8.9500   12.0370   -7.9260 C   0  0  0  0  0  0  0  0  0  0  0  0
   -9.3400   12.9330   -9.1150 C   0  0  1  0  0  0  0  0  0  0  0  0
  -10.5570   13.7840   -8.7710 C   0  0  0  0  0  0  0  0  0  0  0  0
  -10.4840   14.9020   -8.3300 O   0  0  0  0  0  0  0  0  0  0  0  0
  -11.7600   13.1880   -8.9840 N   0  0  0  0  0  0  0  0  0  0  0  0
  -12.5930   13.7170   -8.7660 H   0  0  0  0  0  0  0  0  0  0  0  0
  -11.8230   12.2530   -9.3620 H   0  0  0  0  0  0  0  0  0  0  0  0
   -8.2240   13.8110   -9.4960 N   0  0  0  0  0  0  0  0  0  0  0  0
   -8.0420   14.2560  -10.7770 C   0  0  0  0  0  0  0  0  0  0  0  0
   -6.8630   15.1950  -10.9420 C   0  0  0  0  0  0  0  0  0  0  0  0
   -8.7580   13.9290  -11.6900 O   0  0  0  0  0  0  0  0  0  0  0  0
   -7.6350   14.1960   -8.7590 H   0  0  0  0  0  0  0  0  0  0  0  0
  1  4  1  0  0  0  0
  2  1  1  0  0  0  0
  3  1  1  0  0  0  0
  4  5  1  0  0  0  0
  6  5  1  6  0  0  0
  6  9  1  0  0  0  0
  6  8  1  0  0  0  0
  7  6  2  0  0  0  0
  9 10  1  0  0  0  0
 10 12  2  6  0  0  0
 10 11  1  0  0  0  0
 13 14  1  0  0  0  0
 13 10  1  0  0  0  0
 15 14  1  1  0  0  0
 15 19  1  0  0  0  0
 16 15  1  0  0  0  0
 16 17  1  0  0  0  0
 17 20  1  1  0  0  0
 17 18  1  0  0  0  0
 18 32  1  6  0  0  0
 19 34  1  6  0  0  0
 19 18  1  0  0  0  0
 20 21  1  0  0  0  0
 21 23  2  0  0  0  0
 21 22  1  0  0  0  0
 22 24  2  0  0  0  0
 23 26  1  0  0  0  0
 24 25  1  0  0  0  0
 26 29  1  0  0  0  0
 26 25  2  0  0  0  0
 27 23  1  0  0  0  0
 28 20  1  0  0  0  0
 28 27  2  0  0  0  0
 29 30  1  0  0  0  0
 31 29  1  0  0  0  0
 32 33  1  0  0  0  0
 35 38  1  0  0  0  0
 35 37  1  0  0  0  0
 35 34  1  0  0  0  0
 36 35  2  0  0  0  0
 39 41  1  6  0  0  0
 39  1  1  0  0  0  0
 39 40  1  0  0  0  0
 42 43  1  0  0  0  0
 42 41  1  0  0  0  0
 44 41  2  0  0  0  0
 45 42  1  0  0  0  0
 46 45  1  0  0  0  0
 47 46  1  0  0  0  0
 48 47  1  0  0  0  0
 48 49  1  0  0  0  0
 50 47  2  0  0  0  0
 51 52  1  0  0  0  0
 51 48  1  0  0  0  0
 53 54  1  0  0  0  0
 53 52  1  0  0  0  0
 55 56  1  1  0  0  0
 55 57  1  0  0  0  0
 55 54  1  0  0  0  0
 58 59  1  0  0  0  0
 58 57  1  0  0  0  0
 60 61  1  0  0  0  0
 60 59  1  0  0  0  0
 62 68  1  1  0  0  0
 62 63  1  0  0  0  0
 62 61  1  0  0  0  0
 63 64  2  0  0  0  0
 65 63  1  0  0  0  0
 65 66  1  0  0  0  0
 67 65  1  0  0  0  0
 68 72  1  0  0  0  0
 69 68  1  0  0  0  0
 70 69  1  0  0  0  0
 71 69  2  0  0  0  0
M  END
