pdbs/blv3rf.pdb
 OpenBabel07211515343D

 66 68  0  0  1  0  0  0  0  0999 V2000
    0.4380   -2.4080    2.7130 C   0  0  2  0  0  0  0  0  0  0  0  0
    0.6430   -1.2730    3.7340 C   0  0  0  0  0  0  0  0  0  0  0  0
    1.1830   -3.7360    3.0490 C   0  0  0  0  0  0  0  0  0  0  0  0
    2.6920   -3.5170    3.2890 C   0  0  0  0  0  0  0  0  0  0  0  0
    1.0200   -4.7250    1.8720 C   0  0  0  0  0  0  0  0  0  0  0  0
    0.5540   -4.3430    4.3220 C   0  0  0  0  0  0  0  0  0  0  0  0
    1.0400   -5.6370    4.5760 O   0  0  0  0  0  0  0  0  0  0  0  0
    0.4220   -6.4940    5.8390 P   0  0  2  0  0  0  0  0  0  0  0  0
   -0.9320   -7.0890    4.9200 O   0  0  0  0  0  0  0  0  0  0  0  0
   -0.1610   -5.5720    6.8520 O   0  0  0  0  0  0  0  0  0  0  0  0
    1.4310   -7.5930    6.4380 O   0  0  0  0  0  0  0  0  0  0  0  0
    2.7300   -7.0400    7.2650 P   0  0  2  0  0  0  0  0  0  0  0  0
    2.8500   -7.3560    8.9660 O   0  0  0  0  0  0  0  0  0  0  0  0
    3.1830   -5.6660    6.9080 O   0  0  0  0  0  0  0  0  0  0  0  0
    3.8840   -7.9750    6.5020 O   0  0  0  0  0  0  0  0  0  0  0  0
    4.1790   -9.2440    7.0340 C   0  0  0  0  0  0  0  0  0  0  0  0
    5.2660   -9.9200    6.2030 C   0  0  1  0  0  0  0  0  0  0  0  0
    6.4120   -9.1140    6.1530 O   0  0  0  0  0  0  0  0  0  0  0  0
    7.3850   -9.6180    7.0470 C   0  0  2  0  0  0  0  0  0  0  0  0
    6.7700  -10.7970    7.7940 C   0  0  0  0  0  0  0  0  0  0  0  0
    5.7070  -11.2540    6.7960 C   0  0  0  0  0  0  0  0  0  0  0  0
    7.9600   -8.6100    7.9490 N   0  0  0  0  0  0  0  0  0  0  0  0
    9.1520   -8.6430    8.3690 C   0  0  0  0  0  0  0  0  0  0  0  0
   10.1500   -9.4030    8.2310 N   0  0  0  0  0  0  0  0  0  0  0  0
    9.2140   -7.5360    9.1330 C   0  0  0  0  0  0  0  0  0  0  0  0
   11.1910   -9.0390    8.8560 C   0  0  0  0  0  0  0  0  0  0  0  0
   11.3470   -8.0190    9.5950 N   0  0  0  0  0  0  0  0  0  0  0  0
   10.3630   -7.2330    9.7580 C   0  0  0  0  0  0  0  0  0  0  0  0
    8.1030   -6.9230    9.1340 N   0  0  0  0  0  0  0  0  0  0  0  0
    7.3350   -7.6030    8.3910 C   0  0  0  0  0  0  0  0  0  0  0  0
   10.4230   -6.1900   10.4760 N   0  0  0  0  0  0  0  0  0  0  0  0
   11.3140   -5.9390   10.9710 H   0  0  0  0  0  0  0  0  0  0  0  0
    9.5820   -5.5710   10.5790 H   0  0  0  0  0  0  0  0  0  0  0  0
    0.6930   -1.8530    1.3110 C   0  0  0  0  0  0  0  0  0  0  0  0
   -0.3480   -2.0310    0.4360 N   0  0  0  0  0  0  0  0  0  0  0  0
   -1.1940   -2.4850    0.7770 H   0  0  0  0  0  0  0  0  0  0  0  0
    1.6980   -1.2650    1.0040 O   0  0  0  0  0  0  0  0  0  0  0  0
   -0.3380   -1.5270   -0.9450 C   0  0  0  0  0  0  0  0  0  0  0  0
   -1.0700   -0.1750   -1.0700 C   0  0  0  0  0  0  0  0  0  0  0  0
   -1.1200    0.3650   -2.4970 C   0  0  0  0  0  0  0  0  0  0  0  0
   -1.7230    1.5900   -2.6340 N   0  0  0  0  0  0  0  0  0  0  0  0
   -2.0540    2.0730   -1.7980 H   0  0  0  0  0  0  0  0  0  0  0  0
   -0.6630   -0.2390   -3.4370 O   0  0  0  0  0  0  0  0  0  0  0  0
   -1.7910    2.2750   -3.9340 C   0  0  0  0  0  0  0  0  0  0  0  0
   -2.7980    3.4430   -3.9520 C   0  0  0  0  0  0  0  0  0  0  0  0
   -2.7540    4.1710   -5.6250 S   0  0  0  0  0  0  0  0  0  0  0  0
   -3.8990    5.5780   -5.4590 C   0  0  0  0  0  0  0  0  0  0  0  0
   -3.9730    6.4390   -6.7250 C   0  0  0  0  0  0  0  0  0  0  0  0
   -5.0640    7.2680   -6.7870 N   0  0  0  0  0  0  0  0  0  0  0  0
   -5.7560    7.2300   -6.0390 H   0  0  0  0  0  0  0  0  0  0  0  0
   -3.1470    6.4170   -7.6060 O   0  0  0  0  0  0  0  0  0  0  0  0
   -5.3100    8.1370   -7.9460 C   0  0  0  0  0  0  0  0  0  0  0  0
   -6.3860    9.1950   -7.6550 C   0  0  0  0  0  0  0  0  0  0  0  0
   -6.6400   10.0890   -8.8840 C   0  0  0  0  0  0  0  0  0  0  0  0
   -7.7070   11.1700   -8.6340 C   0  0  0  0  0  0  0  0  0  0  0  0
   -7.9860   12.0220   -9.8870 C   0  0  1  0  0  0  0  0  0  0  0  0
   -9.0950   13.0340   -9.6220 C   0  0  0  0  0  0  0  0  0  0  0  0
   -8.8860   14.1920   -9.3680 O   0  0  0  0  0  0  0  0  0  0  0  0
  -10.3600   12.5410   -9.6840 N   0  0  0  0  0  0  0  0  0  0  0  0
  -11.1240   13.1810   -9.5150 H   0  0  0  0  0  0  0  0  0  0  0  0
  -10.5360   11.5710   -9.9050 H   0  0  0  0  0  0  0  0  0  0  0  0
   -6.7810   12.7560  -10.3000 N   0  0  0  0  0  0  0  0  0  0  0  0
   -6.2930   12.7510  -11.5780 C   0  0  0  0  0  0  0  0  0  0  0  0
   -5.0790   13.6390  -11.7760 C   0  0  0  0  0  0  0  0  0  0  0  0
   -6.7810   12.1020  -12.4690 O   0  0  0  0  0  0  0  0  0  0  0  0
   -6.3590   13.3870   -9.6190 H   0  0  0  0  0  0  0  0  0  0  0  0
  1 34  1  6  0  0  0
  1  3  1  0  0  0  0
  1  2  1  0  0  0  0
  3  4  1  0  0  0  0
  3  6  1  0  0  0  0
  5  3  1  0  0  0  0
  6  7  1  0  0  0  0
  8  7  1  6  0  0  0
  8 11  1  0  0  0  0
  8 10  1  0  0  0  0
  9  8  2  0  0  0  0
 12 11  1  6  0  0  0
 12 13  1  0  0  0  0
 14 12  2  0  0  0  0
 15 16  1  0  0  0  0
 15 12  1  0  0  0  0
 17 21  1  0  0  0  0
 17 16  1  1  0  0  0
 18 17  1  0  0  0  0
 18 19  1  0  0  0  0
 19 20  1  0  0  0  0
 19 22  1  1  0  0  0
 21 20  1  0  0  0  0
 22 23  1  0  0  0  0
 22 30  1  0  0  0  0
 23 25  1  0  0  0  0
 24 23  2  0  0  0  0
 24 26  1  0  0  0  0
 25 29  1  0  0  0  0
 25 28  2  0  0  0  0
 26 27  2  0  0  0  0
 27 28  1  0  0  0  0
 28 31  1  0  0  0  0
 30 29  2  0  0  0  0
 31 33  1  0  0  0  0
 31 32  1  0  0  0  0
 35 36  1  0  0  0  0
 35 34  1  0  0  0  0
 37 34  2  0  0  0  0
 38 35  1  0  0  0  0
 39 38  1  0  0  0  0
 40 39  1  0  0  0  0
 41 40  1  0  0  0  0
 41 42  1  0  0  0  0
 43 40  2  0  0  0  0
 44 41  1  0  0  0  0
 45 44  1  0  0  0  0
 46 47  1  0  0  0  0
 46 45  1  0  0  0  0
 48 47  1  0  0  0  0
 49 48  1  0  0  0  0
 49 50  1  0  0  0  0
 51 48  2  0  0  0  0
 52 53  1  0  0  0  0
 52 49  1  0  0  0  0
 54 55  1  0  0  0  0
 54 53  1  0  0  0  0
 56 62  1  1  0  0  0
 56 57  1  0  0  0  0
 56 55  1  0  0  0  0
 57 58  2  0  0  0  0
 59 57  1  0  0  0  0
 59 60  1  0  0  0  0
 61 59  1  0  0  0  0
 62 66  1  0  0  0  0
 63 62  1  0  0  0  0
 64 63  1  0  0  0  0
 65 63  2  0  0  0  0
M  END
