pdbs/div5-1359.pdb
 OpenBabel07211515343D

 26 29  0  0  0  0  0  0  0  0999 V2000
   -0.6050   -1.1620    1.8710 O   0  0  0  0  0  0  0  0  0  0  0  0
   -3.5960    0.3720   -2.2660 O   0  0  0  0  0  0  0  0  0  0  0  0
    0.4760    0.9950    0.1690 C   0  0  0  0  0  0  0  0  0  0  0  0
   -0.7740    0.3390    0.0140 C   0  0  0  0  0  0  0  0  0  0  0  0
    0.8750    1.9520   -0.7980 C   0  0  0  0  0  0  0  0  0  0  0  0
   -1.2810   -0.7070    0.9570 C   0  0  0  0  0  0  0  0  0  0  0  0
   -2.6410   -1.2450    0.7850 C   0  0  0  0  0  0  0  0  0  0  0  0
   -3.1360   -2.1540    1.7230 C   0  0  0  0  0  0  0  0  0  0  0  0
   -4.4170   -2.6800    1.5780 C   0  0  0  0  0  0  0  0  0  0  0  0
    0.0440    2.2570   -1.8780 C   0  0  0  0  0  0  0  0  0  0  0  0
   -1.5910    0.6820   -1.0760 C   0  0  0  0  0  0  0  0  0  0  0  0
   -3.4300   -0.8710   -0.2940 C   0  0  0  0  0  0  0  0  0  0  0  0
   -5.2060   -2.3030    0.4940 C   0  0  0  0  0  0  0  0  0  0  0  0
   -1.1830    1.6300   -2.0140 C   0  0  0  0  0  0  0  0  0  0  0  0
   -2.9200    0.0790   -1.2870 C   0  0  0  0  0  0  0  0  0  0  0  0
   -4.7130   -1.3990   -0.4450 C   0  0  0  0  0  0  0  0  0  0  0  0
    1.5930    0.6750    1.5470 S   0  0  0  0  0  0  0  0  0  0  0  0
    1.0550    1.8590    2.7630 C   0  0  0  0  0  0  0  0  0  0  0  0
   -0.2000    2.4680    2.7230 C   0  0  0  0  0  0  0  0  0  0  0  0
   -0.5860    3.3670    3.7150 C   0  0  0  0  0  0  0  0  0  0  0  0
    0.2810    3.6520    4.7660 C   0  0  0  0  0  0  0  0  0  0  0  0
    1.5310    3.0410    4.8220 C   0  0  0  0  0  0  0  0  0  0  0  0
    1.9150    2.1480    3.8230 C   0  0  0  0  0  0  0  0  0  0  0  0
    2.1730    2.6840   -0.7290 C   0  0  0  0  0  0  0  0  0  0  0  0
    3.1620    2.1330   -1.3000 O   0  0  0  0  0  0  0  0  0  0  0  0
    2.1620    3.7950   -0.1160 O   0  0  0  0  0  0  0  0  0  0  0  0
  2 15  2  0  0  0  0
  3 17  1  0  0  0  0
  4  3  1  0  0  0  0
  4  6  1  0  0  0  0
  5 24  1  0  0  0  0
  5  3  2  0  0  0  0
  6  1  2  0  0  0  0
  7  6  1  0  0  0  0
  7  8  2  0  0  0  0
  9  8  1  0  0  0  0
 10  5  1  0  0  0  0
 11  4  2  0  0  0  0
 12  7  1  0  0  0  0
 13  9  2  0  0  0  0
 14 10  2  0  0  0  0
 14 11  1  0  0  0  0
 15 11  1  0  0  0  0
 15 12  1  0  0  0  0
 16 12  2  0  0  0  0
 16 13  1  0  0  0  0
 17 18  1  0  0  0  0
 18 23  1  0  0  0  0
 19 18  2  0  0  0  0
 19 20  1  0  0  0  0
 20 21  2  0  0  0  0
 21 22  1  0  0  0  0
 23 22  2  0  0  0  0
 24 26  1  0  0  0  0
 25 24  2  0  0  0  0
M  END
