pdbs/div5-1238.pdb
 OpenBabel07211515343D

 25 26  0  0  1  0  0  0  0  0999 V2000
   -4.9150    0.1900    0.0220 C   0  0  0  0  0  0  0  0  0  0  0  0
   -4.4820    1.4930   -0.2140 C   0  0  0  0  0  0  0  0  0  0  0  0
   -3.9870   -0.8380    0.1650 C   0  0  0  0  0  0  0  0  0  0  0  0
   -3.1170    1.7590   -0.3100 C   0  0  0  0  0  0  0  0  0  0  0  0
   -2.7200    3.0230   -0.5240 F   0  0  0  0  0  0  0  0  0  0  0  0
   -2.6220   -0.5580    0.0730 C   0  0  0  0  0  0  0  0  0  0  0  0
   -2.1690    0.7450   -0.1650 C   0  0  2  0  0  0  0  0  0  0  0  0
   -1.6390   -1.6450    0.2760 C   0  0  0  0  0  0  0  0  0  0  0  0
   -0.7880    1.0350   -0.2300 N   0  0  0  0  0  0  0  0  0  0  0  0
   -2.0220   -2.7820    0.5170 O   0  0  0  0  0  0  0  0  0  0  0  0
    0.1800    0.0240   -0.0140 C   0  0  0  0  0  0  0  0  0  0  0  0
   -0.1930   -1.3080    0.2220 C   0  0  0  0  0  0  0  0  0  0  0  0
    1.5380    0.3770   -0.0470 C   0  0  0  0  0  0  0  0  0  0  0  0
    1.8920    1.7530   -0.5280 C   0  0  0  0  0  0  0  0  0  0  0  0
    0.8030   -2.2660    0.4030 C   0  0  0  0  0  0  0  0  0  0  0  0
    2.1490   -1.9090    0.3800 C   0  0  0  0  0  0  0  0  0  0  0  0
    2.5290   -0.5840    0.1740 C   0  0  0  0  0  0  0  0  0  0  0  0
    3.1730    2.0900   -0.5060 C   0  0  0  0  0  0  0  0  0  0  0  0
    4.2660    0.9630    0.4160 C   0  0  0  0  0  0  0  0  0  0  0  0
    3.8790   -0.3760    0.1080 O   0  0  0  0  0  0  0  0  0  0  0  0
   -0.3510    2.4050   -0.4420 C   0  0  0  0  0  0  0  0  0  0  0  0
    3.1600    2.1040   -0.5170 C   0  0  0  0  0  0  0  0  0  0  0  0
    3.1590    2.1050   -0.5170 C   0  0  0  0  0  0  0  0  0  0  0  0
    0.5140   -3.5840    0.5990 O   0  0  0  0  0  0  0  0  0  0  0  0
   -0.8360   -3.7200    0.2670 C   0  0  0  0  0  0  0  0  0  0  0  0
  1  3  2  0  0  0  0
  2  1  1  0  0  0  0
  4  2  2  0  0  0  0
  5  4  1  0  0  0  0
  6  3  1  0  0  0  0
  6  8  2  0  0  0  0
  7  4  1  1  0  0  0
  7  6  1  0  0  0  0
  8 10  1  0  0  0  0
  9  7  1  0  0  0  0
  9 11  1  0  0  0  0
 11 12  2  0  0  0  0
 12  8  1  0  0  0  0
 12 15  1  0  0  0  0
 13 11  1  0  0  0  0
 13 17  2  0  0  0  0
 14 23  3  0  0  0  0
 15 24  1  0  0  0  0
 16 15  2  0  0  0  0
 17 16  1  0  0  0  0
 18 19  1  0  0  0  0
 20 17  1  0  0  0  0
 20 19  1  0  0  0  0
 21  9  1  0  0  0  0
 25 10  1  0  0  0  0
 25 24  1  0  0  0  0
M  END
