pdbs/div5-1309b.pdb
 OpenBabel07211515343D

 33 37  0  0  1  0  0  0  0  0999 V2000
    0.1740   -1.5890   -1.4810 C   0  0  0  0  0  0  0  0  0  0  0  0
    0.5570   -0.0080    1.2740 C   0  0  2  0  0  0  0  0  0  0  0  0
    1.5340   -1.1820    1.5390 C   0  0  1  0  0  0  0  0  0  0  0  0
   -0.9680    2.5840   -2.0150 C   0  0  0  0  0  0  0  0  0  0  0  0
   -0.2940   -0.1430   -1.2610 C   0  0  2  0  0  0  0  0  0  0  0  0
    0.7610    0.8850   -1.6700 C   0  0  1  0  0  0  0  0  0  0  0  0
    3.0750    2.9520    1.6310 C   0  0  0  0  0  0  0  0  0  0  0  0
    2.5790    1.5260    1.6460 C   0  0  0  0  0  0  0  0  0  0  0  0
   -0.5260   -2.3950   -0.5600 O   0  0  0  0  0  0  0  0  0  0  0  0
   -0.6170   -0.2090    0.2470 C   0  0  1  0  0  0  0  0  0  0  0  0
    3.1740    0.5840    2.3910 C   0  0  0  0  0  0  0  0  0  0  0  0
    0.3170    2.1980   -1.8680 O   0  0  0  0  0  0  0  0  0  0  0  0
    1.9180    0.9650   -0.6760 C   0  0  0  0  0  0  0  0  0  0  0  0
   -1.5620    0.0910   -2.1210 C   0  0  1  0  0  0  0  0  0  0  0  0
   -2.7240   -0.9030   -1.8840 C   0  0  2  0  0  0  0  0  0  0  0  0
    1.4020    1.1920    0.7560 C   0  0  1  0  0  0  0  0  0  0  0  0
   -1.3530   -1.5410    0.1790 C   0  0  1  0  0  0  0  0  0  0  0  0
   -2.7220   -1.4750   -0.4670 C   0  0  1  0  0  0  0  0  0  0  0  0
   -1.3170    3.7280   -2.2200 O   0  0  0  0  0  0  0  0  0  0  0  0
   -2.0410    1.5240   -1.9290 C   0  0  2  0  0  0  0  0  0  0  0  0
   -2.8090   -2.0170   -2.9480 C   0  0  0  0  0  0  0  0  0  0  0  0
   -0.0720    0.4250    2.6300 C   0  0  0  0  0  0  0  0  0  0  0  0
    2.7040   -0.8390    2.4560 C   0  0  2  0  0  0  0  0  0  0  0  0
    0.9030   -2.3020    2.1140 O   0  0  0  0  0  0  0  0  0  0  0  0
    0.2000   -2.6270    1.5500 H   0  0  0  0  0  0  0  0  0  0  0  0
    3.8040   -1.6840    2.1630 O   0  0  0  0  0  0  0  0  0  0  0  0
    4.5330   -1.4290    2.7320 H   0  0  0  0  0  0  0  0  0  0  0  0
   -1.5540   -2.1060    1.4510 O   0  0  0  0  0  0  0  0  0  0  0  0
   -2.4270   -1.8730    1.7740 H   0  0  0  0  0  0  0  0  0  0  0  0
   -3.5390   -0.6900    0.3690 O   0  0  0  0  0  0  0  0  0  0  0  0
   -4.4500   -0.7200    0.0710 H   0  0  0  0  0  0  0  0  0  0  0  0
   -3.0030    1.8650   -2.9160 O   0  0  0  0  0  0  0  0  0  0  0  0
   -3.0580    2.8270   -2.9530 H   0  0  0  0  0  0  0  0  0  0  0  0
  1  9  1  0  0  0  0
  2  3  1  0  0  0  0
  2 22  1  1  0  0  0
  3 24  1  1  0  0  0
  3 23  1  0  0  0  0
  4 20  1  0  0  0  0
  4 12  1  0  0  0  0
  5  1  1  6  0  0  0
  6 12  1  1  0  0  0
  6  5  1  0  0  0  0
  6 13  1  0  0  0  0
  7  8  1  0  0  0  0
  8 11  2  0  0  0  0
  9 17  1  0  0  0  0
 10  5  1  6  0  0  0
 10  2  1  0  0  0  0
 11 23  1  0  0  0  0
 14 20  1  1  0  0  0
 14 15  1  0  0  0  0
 14  5  1  0  0  0  0
 15 21  1  1  0  0  0
 15 18  1  0  0  0  0
 16 13  1  1  0  0  0
 16  2  1  0  0  0  0
 16  8  1  0  0  0  0
 17 10  1  0  0  0  0
 17 28  1  1  0  0  0
 18 17  1  0  0  0  0
 18 30  1  1  0  0  0
 19  4  2  0  0  0  0
 20 32  1  6  0  0  0
 23 26  1  6  0  0  0
 25 24  1  0  0  0  0
 26 27  1  0  0  0  0
 28 29  1  0  0  0  0
 31 30  1  0  0  0  0
 33 32  1  0  0  0  0
M  END
