pdbs/div5-987.pdb
 OpenBabel07211515343D

 21 24  0  0  0  0  0  0  0  0999 V2000
    4.4020    0.4700    0.3580 C   0  0  0  0  0  0  0  0  0  0  0  0
    3.2630    1.1920    0.7240 C   0  0  0  0  0  0  0  0  0  0  0  0
    2.0290    0.5860    0.4780 C   0  0  0  0  0  0  0  0  0  0  0  0
    1.8970   -0.6740   -0.1090 C   0  0  0  0  0  0  0  0  0  0  0  0
    3.0630   -1.3790   -0.4610 C   0  0  0  0  0  0  0  0  0  0  0  0
    4.3080   -0.7940   -0.2170 C   0  0  0  0  0  0  0  0  0  0  0  0
    0.7650    0.9990    0.7680 N   0  0  0  0  0  0  0  0  0  0  0  0
   -0.1890    0.1870    0.2280 C   0  0  0  0  0  0  0  0  0  0  0  0
    0.4950   -0.9290   -0.2640 C   0  0  0  0  0  0  0  0  0  0  0  0
   -1.5820    0.3120    0.1470 C   0  0  0  0  0  0  0  0  0  0  0  0
   -2.2940   -0.7470   -0.4150 C   0  0  0  0  0  0  0  0  0  0  0  0
   -1.6420   -1.8820   -0.8900 C   0  0  0  0  0  0  0  0  0  0  0  0
   -0.2490   -1.9830   -0.8290 C   0  0  0  0  0  0  0  0  0  0  0  0
   -2.2830    1.5060    0.6310 C   0  0  0  0  0  0  0  0  0  0  0  0
   -1.6810    2.4880    1.0390 O   0  0  0  0  0  0  0  0  0  0  0  0
   -3.7800    1.5620    0.5310 C   0  0  0  0  0  0  0  0  0  0  0  0
   -4.4650    0.5360    0.0320 C   0  0  0  0  0  0  0  0  0  0  0  0
   -3.7560   -0.6730   -0.5100 C   0  0  0  0  0  0  0  0  0  0  0  0
   -4.4250   -1.5790   -0.9820 O   0  0  0  0  0  0  0  0  0  0  0  0
    0.5660    2.3380    0.3310 C   0  0  0  0  0  0  0  0  0  0  0  0
    5.5600   -1.5350   -0.5900 C   0  0  0  0  0  0  0  0  0  0  0  0
  1  2  2  0  0  0  0
  3  2  1  0  0  0  0
  3  7  1  0  0  0  0
  4  3  2  0  0  0  0
  5  6  2  0  0  0  0
  5  4  1  0  0  0  0
  6  1  1  0  0  0  0
  8  7  1  0  0  0  0
  9  4  1  0  0  0  0
  9  8  2  0  0  0  0
 10  8  1  0  0  0  0
 10 14  1  0  0  0  0
 11 10  2  0  0  0  0
 12 13  2  0  0  0  0
 12 11  1  0  0  0  0
 13  9  1  0  0  0  0
 14 15  2  0  0  0  0
 16 14  1  0  0  0  0
 17 16  2  0  0  0  0
 18 11  1  0  0  0  0
 18 17  1  0  0  0  0
 19 18  2  0  0  0  0
 20  7  1  0  0  0  0
 21  6  1  0  0  0  0
M  END
