pdbs/div5-1367.pdb
 OpenBabel07211515343D

 28 30  0  0  1  0  0  0  0  0999 V2000
   -1.6690    1.6900   -1.2430 O   0  0  0  0  0  0  0  0  0  0  0  0
    0.1980    2.8970    0.6510 O   0  0  0  0  0  0  0  0  0  0  0  0
    1.7180   -3.0810    0.5180 O   0  0  0  0  0  0  0  0  0  0  0  0
    2.1690    2.1370   -0.4040 C   0  0  0  0  0  0  0  0  0  0  0  0
    0.8720    1.9490    0.2630 C   0  0  0  0  0  0  0  0  0  0  0  0
    2.8420    1.0290   -0.7130 C   0  0  0  0  0  0  0  0  0  0  0  0
    2.3200   -0.3530   -0.4080 C   0  0  2  0  0  0  0  0  0  0  0  0
    0.3280    0.5380    0.3440 C   0  0  0  0  0  0  0  0  0  0  0  0
    1.3510   -0.5610    0.7400 C   0  0  1  0  0  0  0  0  0  0  0  0
    3.2370   -1.5310   -0.7270 C   0  0  0  0  0  0  0  0  0  0  0  0
   -1.2980    0.2680    0.6600 C   0  0  1  0  0  0  0  0  0  0  0  0
   -2.1370    0.9180   -0.4100 C   0  0  0  0  0  0  0  0  0  0  0  0
   -3.5800    0.5960   -0.4000 C   0  0  0  0  0  0  0  0  0  0  0  0
    2.6850   -2.9330   -0.4820 C   0  0  0  0  0  0  0  0  0  0  0  0
    0.8270   -2.0040    0.5740 C   0  0  2  0  0  0  0  0  0  0  0  0
   -1.6390   -1.2180    0.6590 C   0  0  1  0  0  0  0  0  0  0  0  0
   -4.0530   -0.5340    0.1240 C   0  0  0  0  0  0  0  0  0  0  0  0
   -0.5930   -2.2510    1.0640 C   0  0  0  0  0  0  0  0  0  0  0  0
   -3.1120   -1.5480    0.7620 C   0  0  1  0  0  0  0  0  0  0  0  0
   -3.5580   -2.9990    0.9340 C   0  0  0  0  0  0  0  0  0  0  0  0
    0.2860    0.5310    0.3520 C   0  0  0  0  0  0  0  0  0  0  0  0
    1.0970   -0.6230    2.2400 C   0  0  0  0  0  0  0  0  0  0  0  0
    4.1610    1.1150   -1.4290 C   0  0  0  0  0  0  0  0  0  0  0  0
    3.4400   -4.0100   -0.8410 O   0  0  0  0  0  0  0  0  0  0  0  0
    2.6240    3.3990   -0.6680 O   0  0  0  0  0  0  0  0  0  0  0  0
    1.7400    4.2520   -0.0020 C   0  0  0  0  0  0  0  0  0  0  0  0
   -4.3950    1.3670   -1.1930 O   0  0  0  0  0  0  0  0  0  0  0  0
   -3.6860    2.5530   -1.3960 C   0  0  0  0  0  0  0  0  0  0  0  0
  1 12  2  0  0  0  0
  3 15  1  0  0  0  0
  4  5  1  0  0  0  0
  5  8  1  0  0  0  0
  5  2  2  0  0  0  0
  6  7  1  0  0  0  0
  6  4  2  0  0  0  0
  7 10  1  1  0  0  0
  7  9  1  0  0  0  0
  8  9  1  0  0  0  0
  9 22  1  1  0  0  0
 10 14  1  0  0  0  0
 11 21  1  6  0  0  0
 12 13  1  0  0  0  0
 12 11  1  0  0  0  0
 13 17  2  0  0  0  0
 14  3  1  0  0  0  0
 15  9  1  0  0  0  0
 15 18  1  1  0  0  0
 16 11  1  0  0  0  0
 16 19  1  0  0  0  0
 16 18  1  1  0  0  0
 17 19  1  0  0  0  0
 19 20  1  6  0  0  0
 23  6  1  0  0  0  0
 24 14  2  0  0  0  0
 25  4  1  0  0  0  0
 25 26  1  0  0  0  0
 27 13  1  0  0  0  0
 28 27  1  0  0  0  0
M  END
