pdbs/div5-1480.pdb
 OpenBabel07211515343D

 33 37  0  0  0  0  0  0  0  0999 V2000
    0.0460   -0.9870    0.2180 N   0  0  0  0  0  0  0  0  0  0  0  0
    1.0830   -0.1570    0.3800 C   0  0  0  0  0  0  0  0  0  0  0  0
    1.1090    1.0730    0.4350 O   0  0  0  0  0  0  0  0  0  0  0  0
    2.3780   -0.8400    0.5750 C   0  0  0  0  0  0  0  0  0  0  0  0
    3.1670   -1.3270   -0.4880 C   0  0  0  0  0  0  0  0  0  0  0  0
    2.7150   -1.3930   -1.8890 C   0  0  0  0  0  0  0  0  0  0  0  0
    4.4540   -1.7850   -0.1670 C   0  0  0  0  0  0  0  0  0  0  0  0
    2.6510   -2.5970   -2.6260 C   0  0  0  0  0  0  0  0  0  0  0  0
    2.3230   -0.2120   -2.5370 C   0  0  0  0  0  0  0  0  0  0  0  0
    2.1560   -2.5950   -3.9380 C   0  0  0  0  0  0  0  0  0  0  0  0
    1.7360   -1.4140   -4.5390 C   0  0  0  0  0  0  0  0  0  0  0  0
    1.8310   -0.2180   -3.8410 C   0  0  0  0  0  0  0  0  0  0  0  0
    4.9260   -1.8010    1.1450 C   0  0  0  0  0  0  0  0  0  0  0  0
    4.1200   -1.3380    2.1780 C   0  0  0  0  0  0  0  0  0  0  0  0
    2.8530   -0.8420    1.8920 C   0  0  0  0  0  0  0  0  0  0  0  0
    3.1480   -3.9000   -2.0920 C   0  0  0  0  0  0  0  0  0  0  0  0
    2.4200   -4.4780   -1.2310 O   0  0  0  0  0  0  0  0  0  0  0  0
    4.2550   -4.3100   -2.5590 O   0  0  0  0  0  0  0  0  0  0  0  0
   -1.1050   -0.4120   -0.2030 C   0  0  0  0  0  0  0  0  0  0  0  0
   -1.1700    0.4590   -1.3040 C   0  0  0  0  0  0  0  0  0  0  0  0
   -2.3740    0.9980   -1.7490 C   0  0  0  0  0  0  0  0  0  0  0  0
   -3.5500    0.6100   -1.1210 C   0  0  0  0  0  0  0  0  0  0  0  0
   -4.7500    1.1620   -1.6180 O   0  0  0  0  0  0  0  0  0  0  0  0
   -3.5630   -0.2940   -0.0640 C   0  0  0  0  0  0  0  0  0  0  0  0
   -6.0040    0.8300   -1.1130 C   0  0  0  0  0  0  0  0  0  0  0  0
   -7.0320    1.3390   -1.5430 O   0  0  0  0  0  0  0  0  0  0  0  0
   -6.0280   -0.1850   -0.0390 C   0  0  0  0  0  0  0  0  0  0  0  0
   -4.8430   -0.7210    0.4790 C   0  0  0  0  0  0  0  0  0  0  0  0
   -7.2750   -0.6020    0.4340 C   0  0  0  0  0  0  0  0  0  0  0  0
   -4.9450   -1.6890    1.4850 C   0  0  0  0  0  0  0  0  0  0  0  0
   -6.1870   -2.1120    1.9580 C   0  0  0  0  0  0  0  0  0  0  0  0
   -7.3540   -1.5680    1.4310 C   0  0  0  0  0  0  0  0  0  0  0  0
   -2.3260   -0.7810    0.3860 C   0  0  0  0  0  0  0  0  0  0  0  0
  1  2  1  0  0  0  0
  2  3  2  0  0  0  0
  2  4  1  0  0  0  0
  4 15  2  0  0  0  0
  5  7  2  0  0  0  0
  5  4  1  0  0  0  0
  6  5  1  0  0  0  0
  7 13  1  0  0  0  0
  8 16  1  0  0  0  0
  8  6  2  0  0  0  0
  9  6  1  0  0  0  0
 10  8  1  0  0  0  0
 11 10  2  0  0  0  0
 11 12  1  0  0  0  0
 12  9  2  0  0  0  0
 13 14  2  0  0  0  0
 15 14  1  0  0  0  0
 16 17  1  0  0  0  0
 18 16  2  0  0  0  0
 19  1  1  0  0  0  0
 19 33  2  0  0  0  0
 20 19  1  0  0  0  0
 21 20  2  0  0  0  0
 21 22  1  0  0  0  0
 22 24  2  0  0  0  0
 23 22  1  0  0  0  0
 23 25  1  0  0  0  0
 24 33  1  0  0  0  0
 24 28  1  0  0  0  0
 25 27  1  0  0  0  0
 26 25  2  0  0  0  0
 27 29  2  0  0  0  0
 27 28  1  0  0  0  0
 28 30  2  0  0  0  0
 29 32  1  0  0  0  0
 30 31  1  0  0  0  0
 32 31  2  0  0  0  0
M  END
