pdbs/div5-1435.pdb
 OpenBabel07211515343D

 27 31  0  0  0  0  0  0  0  0999 V2000
   -1.8860    1.3580   -0.1880 N   0  0  0  0  0  0  0  0  0  0  0  0
   -0.3800   -0.2620   -0.4550 N   0  0  0  0  0  0  0  0  0  0  0  0
    0.0900    1.4080    0.8360 N   0  0  0  0  0  0  0  0  0  0  0  0
    0.8350   -2.0600   -0.5700 N   0  0  0  0  0  0  0  0  0  0  0  0
    1.6160   -0.1890    0.4400 N   0  0  0  0  0  0  0  0  0  0  0  0
    2.1350    1.4170    1.6890 N   0  0  0  0  0  0  0  0  0  0  0  0
    3.1340    0.6790    1.5410 N   0  0  0  0  0  0  0  0  0  0  0  0
   -2.8490    0.6630   -1.0860 C   0  0  0  0  0  0  0  0  0  0  0  0
   -3.3690    1.6520   -2.1410 C   0  0  0  0  0  0  0  0  0  0  0  0
   -3.9090    2.9290   -1.4830 C   0  0  0  0  0  0  0  0  0  0  0  0
   -2.8180    3.6000   -0.6360 C   0  0  0  0  0  0  0  0  0  0  0  0
   -2.2910    2.6430    0.4440 C   0  0  0  0  0  0  0  0  0  0  0  0
    1.2310    0.8890    0.9850 C   0  0  0  0  0  0  0  0  0  0  0  0
   -0.7380    0.8500    0.0510 C   0  0  0  0  0  0  0  0  0  0  0  0
    2.8620   -0.2590    0.7250 C   0  0  0  0  0  0  0  0  0  0  0  0
    3.8820   -1.0480    0.3050 C   0  0  0  0  0  0  0  0  0  0  0  0
    3.8030   -1.8790   -0.7550 C   0  0  0  0  0  0  0  0  0  0  0  0
    4.8270   -2.6460   -1.1630 C   0  0  0  0  0  0  0  0  0  0  0  0
    6.0020   -2.5940   -0.5250 C   0  0  0  0  0  0  0  0  0  0  0  0
    5.0980   -0.9860    0.8930 C   0  0  0  0  0  0  0  0  0  0  0  0
    6.1350   -1.7460    0.5040 C   0  0  0  0  0  0  0  0  0  0  0  0
    0.7290   -0.8400   -0.2100 C   0  0  0  0  0  0  0  0  0  0  0  0
   -0.0730   -2.5940   -1.6180 C   0  0  0  0  0  0  0  0  0  0  0  0
   -1.2460   -3.3410   -0.9680 C   0  0  0  0  0  0  0  0  0  0  0  0
   -0.7220   -4.3980    0.0170 C   0  0  0  0  0  0  0  0  0  0  0  0
    0.1900   -3.7580    1.0760 C   0  0  0  0  0  0  0  0  0  0  0  0
    1.3800   -3.0240    0.4310 C   0  0  0  0  0  0  0  0  0  0  0  0
  1 14  1  0  0  0  0
  1 12  1  0  0  0  0
  2 22  2  0  0  0  0
  2 14  1  0  0  0  0
  3 13  1  0  0  0  0
  4 22  1  0  0  0  0
  4 27  1  0  0  0  0
  5 15  1  0  0  0  0
  5 13  1  0  0  0  0
  7  6  1  0  0  0  0
  8  1  1  0  0  0  0
  9 10  1  0  0  0  0
  9  8  1  0  0  0  0
 10 11  1  0  0  0  0
 11 12  1  0  0  0  0
 13  6  2  0  0  0  0
 14  3  2  0  0  0  0
 15  7  2  0  0  0  0
 16 15  1  0  0  0  0
 16 20  2  0  0  0  0
 17 16  1  0  0  0  0
 18 17  2  0  0  0  0
 18 19  1  0  0  0  0
 19 21  2  0  0  0  0
 21 20  1  0  0  0  0
 22  5  1  0  0  0  0
 23 24  1  0  0  0  0
 23  4  1  0  0  0  0
 24 25  1  0  0  0  0
 25 26  1  0  0  0  0
 27 26  1  0  0  0  0
M  END
