pdbs/div5-1492a.pdb
 OpenBabel07211515343D

 32 35  0  0  1  0  0  0  0  0999 V2000
    0.2400   -2.6910   -2.7590 C   0  0  0  0  0  0  0  0  0  0  0  0
    0.6340   -3.7820   -3.0870 O   0  0  0  0  0  0  0  0  0  0  0  0
    0.1140   -2.4170   -1.4220 N   0  0  0  0  0  0  0  0  0  0  0  0
    0.4150   -3.1830   -0.8190 H   0  0  0  0  0  0  0  0  0  0  0  0
   -0.2560   -1.1420   -0.7950 C   0  0  2  0  0  0  0  0  0  0  0  0
    1.0090   -0.3850   -0.3730 C   0  0  0  0  0  0  0  0  0  0  0  0
    0.5760    0.9370    0.2580 C   0  0  0  0  0  0  0  0  0  0  0  0
   -0.3940    0.7540    1.4340 C   0  0  1  0  0  0  0  0  0  0  0  0
   -1.0840    2.1200    1.6570 C   0  0  0  0  0  0  0  0  0  0  0  0
   -1.4400   -0.1080    1.0660 O   0  0  0  0  0  0  0  0  0  0  0  0
   -1.1460   -1.3370    0.4520 C   0  0  0  0  0  0  0  0  0  0  0  0
   -0.5750   -2.3710    1.4340 C   0  0  0  0  0  0  0  0  0  0  0  0
   -2.5210   -1.8840    0.0210 C   0  0  0  0  0  0  0  0  0  0  0  0
    0.2150    0.3460    2.8040 C   0  0  0  0  0  0  0  0  0  0  0  0
    1.6490    0.0820    2.7950 N   0  0  0  0  0  0  0  0  0  0  0  0
    2.4350    1.2920    3.0190 C   0  0  0  0  0  0  0  0  0  0  0  0
    2.5110    1.5020    4.5430 C   0  0  0  0  0  0  0  0  0  0  0  0
    2.1400    0.1330    5.1340 C   0  0  0  0  0  0  0  0  0  0  0  0
    2.0790   -0.7700    3.8960 C   0  0  0  0  0  0  0  0  0  0  0  0
   -0.1270   -1.6060   -3.7840 C   0  0  2  0  0  0  0  0  0  0  0  0
    0.7660   -0.3770   -3.7190 C   0  0  0  0  0  0  0  0  0  0  0  0
    2.0860   -0.5100   -3.9530 C   0  0  0  0  0  0  0  0  0  0  0  0
    2.9180    0.5420   -3.9020 C   0  0  0  0  0  0  0  0  0  0  0  0
    2.4400    1.7600   -3.6090 C   0  0  0  0  0  0  0  0  0  0  0  0
    1.1300    1.9130   -3.3690 C   0  0  0  0  0  0  0  0  0  0  0  0
    0.3070    0.8540   -3.4230 C   0  0  0  0  0  0  0  0  0  0  0  0
   -1.6100   -1.3870   -4.0390 C   0  0  0  0  0  0  0  0  0  0  0  0
   -2.5550   -2.1190   -3.4220 C   0  0  0  0  0  0  0  0  0  0  0  0
   -3.8620   -1.9330   -3.6660 C   0  0  0  0  0  0  0  0  0  0  0  0
   -4.2530   -1.0180   -4.5650 C   0  0  0  0  0  0  0  0  0  0  0  0
   -3.3270   -0.3090   -5.2250 C   0  0  0  0  0  0  0  0  0  0  0  0
   -2.0240   -0.5040   -4.9700 C   0  0  0  0  0  0  0  0  0  0  0  0
  1  3  1  0  0  0  0
  2  1  2  0  0  0  0
  3  4  1  0  0  0  0
  5  3  1  1  0  0  0
  5  6  1  0  0  0  0
  5 11  1  0  0  0  0
  6  7  1  0  0  0  0
  7  8  1  0  0  0  0
  8  9  1  1  0  0  0
  8 14  1  0  0  0  0
 10  8  1  0  0  0  0
 11 10  1  0  0  0  0
 11 12  1  0  0  0  0
 13 11  1  0  0  0  0
 15 14  1  0  0  0  0
 15 16  1  0  0  0  0
 15 19  1  0  0  0  0
 16 17  1  0  0  0  0
 17 18  1  0  0  0  0
 19 18  1  0  0  0  0
 20 27  1  1  0  0  0
 20 21  1  0  0  0  0
 20  1  1  0  0  0  0
 21 26  2  0  0  0  0
 22 23  2  0  0  0  0
 22 21  1  0  0  0  0
 23 24  1  0  0  0  0
 24 25  2  0  0  0  0
 26 25  1  0  0  0  0
 27 28  2  0  0  0  0
 29 28  1  0  0  0  0
 30 29  2  0  0  0  0
 31 32  2  0  0  0  0
 31 30  1  0  0  0  0
 32 27  1  0  0  0  0
M  END
