pdbs/div5-665.pdb
 OpenBabel07211515343D

 22 25  0  0  1  0  0  0  0  0999 V2000
   -1.7940    0.2690   -0.8730 C   0  0  1  0  0  0  0  0  0  0  0  0
   -2.0780    1.7520   -0.6480 C   0  0  0  0  0  0  0  0  0  0  0  0
   -1.3590   -0.2800    0.4910 C   0  0  1  0  0  0  0  0  0  0  0  0
   -0.5900   -1.6070    0.4030 C   0  0  0  0  0  0  0  0  0  0  0  0
    0.8040   -1.4800   -0.2200 C   0  0  0  0  0  0  0  0  0  0  0  0
   -1.2890    2.1310    0.6190 C   0  0  0  0  0  0  0  0  0  0  0  0
   -0.4900    0.8760    1.0380 C   0  0  2  0  0  0  0  0  0  0  0  0
    1.6700   -0.4580    0.5420 C   0  0  2  0  0  0  0  0  0  0  0  0
    0.9640    0.9160    0.5030 C   0  0  2  0  0  0  0  0  0  0  0  0
    3.1710   -0.4450    0.0950 C   0  0  1  0  0  0  0  0  0  0  0  0
    3.3190   -0.2710   -1.4350 C   0  0  0  0  0  0  0  0  0  0  0  0
    4.7720   -0.1220   -1.9150 C   0  0  0  0  0  0  0  0  0  0  0  0
    1.7910    1.9320    1.3140 C   0  0  0  0  0  0  0  0  0  0  0  0
    3.9420    0.6950    0.8150 C   0  0  2  0  0  0  0  0  0  0  0  0
    5.4930    1.0340   -1.2070 C   0  0  1  0  0  0  0  0  0  0  0  0
    3.2080    2.0460    0.7500 C   0  0  0  0  0  0  0  0  0  0  0  0
    5.3930    0.8680    0.3180 C   0  0  0  0  0  0  0  0  0  0  0  0
    6.9600    1.1260   -1.6570 C   0  0  0  0  0  0  0  0  0  0  0  0
    3.8050   -1.8010    0.5100 C   0  0  0  0  0  0  0  0  0  0  0  0
   -2.5860   -0.5110    1.4060 C   0  0  0  0  0  0  0  0  0  0  0  0
   -2.9200   -0.3970   -1.3870 O   0  0  0  0  0  0  0  0  0  0  0  0
   -2.7000   -1.3180   -1.5430 H   0  0  0  0  0  0  0  0  0  0  0  0
  1 21  1  1  0  0  0
  1  2  1  0  0  0  0
  1  3  1  0  0  0  0
  2  6  1  0  0  0  0
  3  7  1  0  0  0  0
  3 20  1  1  0  0  0
  4  3  1  0  0  0  0
  5  4  1  0  0  0  0
  7  6  1  6  0  0  0
  8  5  1  6  0  0  0
  9  8  1  0  0  0  0
  9  7  1  0  0  0  0
  9 13  1  1  0  0  0
 10 19  1  1  0  0  0
 10  8  1  0  0  0  0
 10 14  1  0  0  0  0
 11 10  1  0  0  0  0
 12 11  1  0  0  0  0
 12 15  1  0  0  0  0
 14 17  1  6  0  0  0
 15 18  1  1  0  0  0
 15 17  1  0  0  0  0
 16 14  1  0  0  0  0
 16 13  1  0  0  0  0
 22 21  1  0  0  0  0
M  END
