pdbs/div5-1448.pdb
 OpenBabel07211515343D

 25 28  0  0  0  0  0  0  0  0999 V2000
   -0.3050    1.0820    0.1170 C   0  0  0  0  0  0  0  0  0  0  0  0
    0.4920    0.6330   -0.7030 O   0  0  0  0  0  0  0  0  0  0  0  0
   -0.1900    2.1520    0.9120 N   0  0  0  0  0  0  0  0  0  0  0  0
   -1.6400    0.4350    0.1910 C   0  0  0  0  0  0  0  0  0  0  0  0
   -2.7960    1.0370   -0.3900 C   0  0  0  0  0  0  0  0  0  0  0  0
   -4.0070    0.2980   -0.1950 C   0  0  0  0  0  0  0  0  0  0  0  0
   -2.7600    2.1510   -1.0240 O   0  0  0  0  0  0  0  0  0  0  0  0
   -5.2500    0.7750   -0.6520 C   0  0  0  0  0  0  0  0  0  0  0  0
   -4.0170   -0.9520    0.4800 C   0  0  0  0  0  0  0  0  0  0  0  0
   -6.4390    0.0740   -0.4530 C   0  0  0  0  0  0  0  0  0  0  0  0
   -6.4140   -1.1460    0.2080 C   0  0  0  0  0  0  0  0  0  0  0  0
   -5.2050   -1.6570    0.6680 C   0  0  0  0  0  0  0  0  0  0  0  0
   -2.8430   -1.4950    0.9790 C   0  0  0  0  0  0  0  0  0  0  0  0
   -1.6530   -0.8010    0.8470 C   0  0  0  0  0  0  0  0  0  0  0  0
    1.0480    2.3490    1.4230 C   0  0  0  0  0  0  0  0  0  0  0  0
    2.0160    3.1860    0.8000 C   0  0  0  0  0  0  0  0  0  0  0  0
    1.7850    3.7770   -0.4560 C   0  0  0  0  0  0  0  0  0  0  0  0
    3.2500    3.4600    1.4470 C   0  0  0  0  0  0  0  0  0  0  0  0
    2.7220    4.6020   -1.0720 C   0  0  0  0  0  0  0  0  0  0  0  0
    3.9240    4.8670   -0.4360 C   0  0  0  0  0  0  0  0  0  0  0  0
    4.1790    4.3010    0.8080 C   0  0  0  0  0  0  0  0  0  0  0  0
    3.4980    2.8970    2.7100 C   0  0  0  0  0  0  0  0  0  0  0  0
    2.5580    2.0750    3.3200 C   0  0  0  0  0  0  0  0  0  0  0  0
    5.0950    3.2240    3.6800 Br  0  0  0  0  0  0  0  0  0  0  0  0
    1.3510    1.8150    2.6830 C   0  0  0  0  0  0  0  0  0  0  0  0
  1  4  1  0  0  0  0
  1  3  1  0  0  0  0
  2  1  2  0  0  0  0
  3 15  1  0  0  0  0
  4 14  2  0  0  0  0
  5  6  2  0  0  0  0
  5  4  1  0  0  0  0
  6  9  1  0  0  0  0
  7  5  1  0  0  0  0
  8 10  2  0  0  0  0
  8  6  1  0  0  0  0
  9 12  1  0  0  0  0
  9 13  2  0  0  0  0
 10 11  1  0  0  0  0
 11 12  2  0  0  0  0
 14 13  1  0  0  0  0
 15 25  1  0  0  0  0
 16 15  2  0  0  0  0
 16 18  1  0  0  0  0
 17 16  1  0  0  0  0
 18 22  2  0  0  0  0
 19 17  2  0  0  0  0
 19 20  1  0  0  0  0
 20 21  2  0  0  0  0
 21 18  1  0  0  0  0
 22 23  1  0  0  0  0
 22 24  1  0  0  0  0
 25 23  2  0  0  0  0
M  END
