pdbs/div5-1050.pdb
 OpenBabel07211515343D

 26 28  0  0  0  0  0  0  0  0999 V2000
   -1.2570    1.0560   -0.5590 C   0  0  0  0  0  0  0  0  0  0  0  0
   -0.4760    1.4840    0.5170 C   0  0  0  0  0  0  0  0  0  0  0  0
   -0.7000    0.3820   -1.6470 C   0  0  0  0  0  0  0  0  0  0  0  0
    0.6620    0.1060   -1.6460 C   0  0  0  0  0  0  0  0  0  0  0  0
    0.8900    1.2250    0.5100 C   0  0  0  0  0  0  0  0  0  0  0  0
    1.4440    0.5420   -0.5730 C   0  0  0  0  0  0  0  0  0  0  0  0
   -2.6910    1.3730   -0.5660 C   0  0  0  0  0  0  0  0  0  0  0  0
   -3.0030    2.5400   -0.7910 O   0  0  0  0  0  0  0  0  0  0  0  0
   -3.4600    0.3110   -0.3010 N   0  0  0  0  0  0  0  0  0  0  0  0
   -4.7810    0.5170   -0.4740 C   0  0  0  0  0  0  0  0  0  0  0  0
   -5.3770    0.4550   -1.7410 C   0  0  0  0  0  0  0  0  0  0  0  0
   -6.7560    0.5820   -1.9020 C   0  0  0  0  0  0  0  0  0  0  0  0
   -7.5710    0.7550   -0.7880 C   0  0  0  0  0  0  0  0  0  0  0  0
   -7.0080    0.8000    0.4820 C   0  0  0  0  0  0  0  0  0  0  0  0
   -8.9840    0.8170   -0.9440 N   0  0  0  0  0  0  0  0  0  0  0  0
   -5.6270    0.6770    0.6310 C   0  0  0  0  0  0  0  0  0  0  0  0
    2.8810    0.2430   -0.5780 C   0  0  0  0  0  0  0  0  0  0  0  0
    3.2380   -0.7660    0.0270 O   0  0  0  0  0  0  0  0  0  0  0  0
    3.5750    1.1000   -1.3300 N   0  0  0  0  0  0  0  0  0  0  0  0
    4.9090    1.1830   -1.1430 C   0  0  0  0  0  0  0  0  0  0  0  0
    5.5680    0.9520    0.0740 C   0  0  0  0  0  0  0  0  0  0  0  0
    6.9400    1.1610    0.2220 C   0  0  0  0  0  0  0  0  0  0  0  0
    7.6820    1.6500   -0.8460 C   0  0  0  0  0  0  0  0  0  0  0  0
    7.0600    1.9050   -2.0610 C   0  0  0  0  0  0  0  0  0  0  0  0
    9.0620    1.9540   -0.6760 N   0  0  0  0  0  0  0  0  0  0  0  0
    5.6930    1.6670   -2.1990 C   0  0  0  0  0  0  0  0  0  0  0  0
  1  2  2  0  0  0  0
  3  4  2  0  0  0  0
  3  1  1  0  0  0  0
  4  6  1  0  0  0  0
  5  2  1  0  0  0  0
  6  5  2  0  0  0  0
  7  1  1  0  0  0  0
  7  9  1  0  0  0  0
  8  7  2  0  0  0  0
 10  9  1  0  0  0  0
 10 16  2  0  0  0  0
 11 10  1  0  0  0  0
 12 11  2  0  0  0  0
 12 13  1  0  0  0  0
 13 14  2  0  0  0  0
 14 16  1  0  0  0  0
 15 13  1  0  0  0  0
 17  6  1  0  0  0  0
 17 18  2  0  0  0  0
 19 20  1  0  0  0  0
 19 17  1  0  0  0  0
 20 21  2  0  0  0  0
 21 22  1  0  0  0  0
 23 25  1  0  0  0  0
 23 22  2  0  0  0  0
 24 23  1  0  0  0  0
 26 24  2  0  0  0  0
 26 20  1  0  0  0  0
M  END
