pdbs/div5-1357.pdb
 OpenBabel07211515343D

 26 29  0  0  0  0  0  0  0  0999 V2000
   -1.7740   -2.8780    0.4460 N   0  0  0  0  0  0  0  0  0  0  0  0
   -6.1600   -4.6590    2.5330 B   0  0  0  0  0  0  0  0  0  0  0  0
   -1.9440   -5.0750    0.7320 C   0  0  0  0  0  0  0  0  0  0  0  0
   -2.6510   -6.1470    1.1400 C   0  0  0  0  0  0  0  0  0  0  0  0
   -2.4870   -3.8460    0.8520 C   0  0  0  0  0  0  0  0  0  0  0  0
   -3.8760   -5.9680    1.6600 C   0  0  0  0  0  0  0  0  0  0  0  0
   -3.7200   -3.6640    1.3730 C   0  0  0  0  0  0  0  0  0  0  0  0
   -4.4150   -4.7440    1.7800 C   0  0  0  0  0  0  0  0  0  0  0  0
   -4.1810   -2.4000    1.4540 C   0  0  0  0  0  0  0  0  0  0  0  0
   -3.4140   -1.3900    1.0210 C   0  0  0  0  0  0  0  0  0  0  0  0
   -2.2100   -1.6950    0.5230 C   0  0  0  0  0  0  0  0  0  0  0  0
   -2.0970   -7.5570    1.0260 C   0  0  0  0  0  0  0  0  0  0  0  0
   -2.8420   -8.3270    0.0340 N   0  0  0  0  0  0  0  0  0  0  0  0
   -2.6020   -7.8340   -1.3130 C   0  0  0  0  0  0  0  0  0  0  0  0
   -3.4890   -8.5290   -2.3580 C   0  0  0  0  0  0  0  0  0  0  0  0
   -3.7200   -9.9790   -2.1250 N   0  0  0  0  0  0  0  0  0  0  0  0
   -4.3250  -10.6780   -3.0180 C   0  0  0  0  0  0  0  0  0  0  0  0
   -3.3530  -10.6030   -0.8270 C   0  0  0  0  0  0  0  0  0  0  0  0
   -4.6200  -11.9880   -2.8500 C   0  0  0  0  0  0  0  0  0  0  0  0
   -4.7400  -10.1620   -4.1980 C   0  0  0  0  0  0  0  0  0  0  0  0
   -5.2530  -12.7280   -3.7760 C   0  0  0  0  0  0  0  0  0  0  0  0
   -5.6340  -12.1790   -4.9350 C   0  0  0  0  0  0  0  0  0  0  0  0
   -5.3740  -10.8820   -5.1380 C   0  0  0  0  0  0  0  0  0  0  0  0
   -2.4780   -9.7340    0.0900 C   0  0  0  0  0  0  0  0  0  0  0  0
   -0.6990   -5.2220    0.1950 O   0  0  0  0  0  0  0  0  0  0  0  0
   -0.3470   -4.3540   -0.0580 H   0  0  0  0  0  0  0  0  0  0  0  0
  1 11  2  0  0  0  0
  1  5  1  0  0  0  0
  3  5  2  0  0  0  0
  3  4  1  0  0  0  0
  4  6  2  0  0  0  0
  5  7  1  0  0  0  0
  6  8  1  0  0  0  0
  7  9  1  0  0  0  0
  7  8  2  0  0  0  0
  8  2  1  0  0  0  0
 10  9  2  0  0  0  0
 11 10  1  0  0  0  0
 12  4  1  0  0  0  0
 13 24  1  0  0  0  0
 13 12  1  0  0  0  0
 14 13  1  0  0  0  0
 15 16  1  0  0  0  0
 15 14  1  0  0  0  0
 16 18  1  0  0  0  0
 17 19  1  0  0  0  0
 17 16  1  0  0  0  0
 18 24  1  0  0  0  0
 20 17  2  0  0  0  0
 21 19  2  0  0  0  0
 22 21  1  0  0  0  0
 23 22  2  0  0  0  0
 23 20  1  0  0  0  0
 25  3  1  0  0  0  0
 26 25  1  0  0  0  0
M  END
