pdbs/div5-1412.pdb
 OpenBabel07211515343D

 28 32  0  0  0  0  0  0  0  0999 V2000
   -0.1180   -1.2590    0.9160 O   0  0  0  0  0  0  0  0  0  0  0  0
   -0.4290    0.4440   -0.5280 N   0  0  0  0  0  0  0  0  0  0  0  0
   -2.6830   -1.9310    1.0190 N   0  0  0  0  0  0  0  0  0  0  0  0
   -5.7980    0.7040    0.0470 C   0  0  0  0  0  0  0  0  0  0  0  0
   -4.7540   -0.1620    0.3780 C   0  0  0  0  0  0  0  0  0  0  0  0
   -5.5360    1.9390   -0.5410 C   0  0  0  0  0  0  0  0  0  0  0  0
   -5.0390   -1.3900    0.9620 C   0  0  0  0  0  0  0  0  0  0  0  0
   -3.9790   -2.2270    1.2610 C   0  0  0  0  0  0  0  0  0  0  0  0
   -4.2240    2.3210   -0.7960 C   0  0  0  0  0  0  0  0  0  0  0  0
   -3.4190    0.2030    0.1170 C   0  0  0  0  0  0  0  0  0  0  0  0
   -3.1800    1.4610   -0.4700 C   0  0  0  0  0  0  0  0  0  0  0  0
   -2.4170   -0.7250    0.4580 C   0  0  0  0  0  0  0  0  0  0  0  0
   -1.0010   -0.4680    0.2310 C   0  0  0  0  0  0  0  0  0  0  0  0
    2.5650   -2.7640    0.6760 C   0  0  0  0  0  0  0  0  0  0  0  0
    2.2340   -1.4850    1.1290 C   0  0  0  0  0  0  0  0  0  0  0  0
    3.6250   -3.4600    1.2530 C   0  0  0  0  0  0  0  0  0  0  0  0
    1.1160   -0.7860    0.5520 C   0  0  0  0  0  0  0  0  0  0  0  0
    0.9160    0.2730   -0.3080 C   0  0  0  0  0  0  0  0  0  0  0  0
    2.9700   -0.9050    2.1610 C   0  0  0  0  0  0  0  0  0  0  0  0
    4.3590   -2.8750    2.2800 C   0  0  0  0  0  0  0  0  0  0  0  0
    1.9040    1.1310   -0.9100 C   0  0  0  0  0  0  0  0  0  0  0  0
    4.0350   -1.5980    2.7320 C   0  0  0  0  0  0  0  0  0  0  0  0
    1.6530    2.5050   -0.9830 C   0  0  0  0  0  0  0  0  0  0  0  0
    3.0570    0.6100   -1.4940 C   0  0  0  0  0  0  0  0  0  0  0  0
    2.5480    3.3520   -1.6300 C   0  0  0  0  0  0  0  0  0  0  0  0
    3.9650    1.4600   -2.1230 C   0  0  0  0  0  0  0  0  0  0  0  0
    3.7070    2.8280   -2.1930 C   0  0  0  0  0  0  0  0  0  0  0  0
    4.6520    3.7320   -2.9320 C   0  0  0  0  0  0  0  0  0  0  0  0
  2 18  1  0  0  0  0
  2 13  2  0  0  0  0
  3  8  1  0  0  0  0
  4  5  2  0  0  0  0
  5  7  1  0  0  0  0
  6  4  1  0  0  0  0
  7  8  2  0  0  0  0
  9  6  2  0  0  0  0
  9 11  1  0  0  0  0
 10  5  1  0  0  0  0
 10 12  1  0  0  0  0
 11 10  2  0  0  0  0
 12  3  2  0  0  0  0
 13 12  1  0  0  0  0
 13  1  1  0  0  0  0
 14 15  2  0  0  0  0
 14 16  1  0  0  0  0
 15 19  1  0  0  0  0
 16 20  2  0  0  0  0
 17  1  1  0  0  0  0
 17 15  1  0  0  0  0
 18 17  2  0  0  0  0
 19 22  2  0  0  0  0
 20 22  1  0  0  0  0
 21 18  1  0  0  0  0
 23 21  1  0  0  0  0
 24 21  2  0  0  0  0
 25 23  2  0  0  0  0
 26 24  1  0  0  0  0
 27 26  2  0  0  0  0
 27 25  1  0  0  0  0
 28 27  1  0  0  0  0
M  END
