pdbs/div5-1591.pdb
 OpenBabel07211515353D

 36 41  0  0  0  0  0  0  0  0999 V2000
    0.1360    0.3560    0.8330 C   0  0  0  0  0  0  0  0  0  0  0  0
    1.3930    0.9410    2.7440 C   0  0  0  0  0  0  0  0  0  0  0  0
    8.1700    1.1520    2.2310 C   0  0  0  0  0  0  0  0  0  0  0  0
    6.3020    2.6710    2.4710 C   0  0  0  0  0  0  0  0  0  0  0  0
    3.8140    1.6160    3.9930 C   0  0  0  0  0  0  0  0  0  0  0  0
    7.8200    2.6460    2.2300 C   0  0  0  0  0  0  0  0  0  0  0  0
    3.6840    1.0370    2.8550 N   0  0  0  0  0  0  0  0  0  0  0  0
    7.3160    0.6160    3.3860 C   0  0  0  0  0  0  0  0  0  0  0  0
    2.6110    0.8360    2.1690 C   0  0  0  0  0  0  0  0  0  0  0  0
    3.7120    0.5210   -0.1270 C   0  0  0  0  0  0  0  0  0  0  0  0
    1.3490    0.2880    0.2510 C   0  0  0  0  0  0  0  0  0  0  0  0
    0.2230    0.7160    2.1260 C   0  0  0  0  0  0  0  0  0  0  0  0
    5.2290    1.5460    4.5510 C   0  0  0  0  0  0  0  0  0  0  0  0
    5.9870    1.3700    3.2360 C   0  0  0  0  0  0  0  0  0  0  0  0
    5.0870   -0.3990    1.9230 O   0  0  0  0  0  0  0  0  0  0  0  0
    4.8520    0.6110    2.5540 C   0  0  0  0  0  0  0  0  0  0  0  0
    3.0100    2.2850    4.6080 O   0  0  0  0  0  0  0  0  0  0  0  0
    2.5400    0.5140    0.8490 C   0  0  0  0  0  0  0  0  0  0  0  0
   -1.0380    0.1120    0.1880 C   0  0  0  0  0  0  0  0  0  0  0  0
   -1.1200   -0.2830   -1.0960 C   0  0  0  0  0  0  0  0  0  0  0  0
   -2.2890   -0.4960   -1.7190 C   0  0  0  0  0  0  0  0  0  0  0  0
   -3.5060   -0.3250   -1.1580 C   0  0  0  0  0  0  0  0  0  0  0  0
   -4.5660   -0.5280   -1.8580 N   0  0  0  0  0  0  0  0  0  0  0  0
   -3.4440   -0.0220    0.1650 C   0  0  0  0  0  0  0  0  0  0  0  0
   -5.7880   -0.3440   -1.5460 C   0  0  0  0  0  0  0  0  0  0  0  0
   -4.6470   -0.8520   -3.0920 C   0  0  0  0  0  0  0  0  0  0  0  0
   -6.2470    0.6090   -0.9550 O   0  0  0  0  0  0  0  0  0  0  0  0
   -6.6830   -1.4180   -2.1430 C   0  0  0  0  0  0  0  0  0  0  0  0
   -5.8030   -1.8250   -3.3300 C   0  0  0  0  0  0  0  0  0  0  0  0
   -6.4540   -1.6950   -4.7120 C   0  0  0  0  0  0  0  0  0  0  0  0
   -5.3070   -3.2760   -3.3070 C   0  0  0  0  0  0  0  0  0  0  0  0
   -5.6440   -2.6210   -5.6380 C   0  0  0  0  0  0  0  0  0  0  0  0
   -4.7580   -3.4860   -4.7240 C   0  0  0  0  0  0  0  0  0  0  0  0
   -3.9740   -0.4190   -4.0050 O   0  0  0  0  0  0  0  0  0  0  0  0
   -4.6340    0.0260    1.1140 C   0  0  0  0  0  0  0  0  0  0  0  0
   -2.2530    0.1980    0.7650 C   0  0  0  0  0  0  0  0  0  0  0  0
  1 12  1  0  0  0  0
  3  8  1  0  0  0  0
  4 14  1  0  0  0  0
  5 13  1  0  0  0  0
  5 17  2  0  0  0  0
  6  3  1  0  0  0  0
  6  4  1  0  0  0  0
  7  5  1  0  0  0  0
  9  2  1  0  0  0  0
  9  7  1  0  0  0  0
 10 18  1  0  0  0  0
 11  1  2  0  0  0  0
 11 18  1  0  0  0  0
 12  2  2  0  0  0  0
 14  8  1  0  0  0  0
 14 13  1  0  0  0  0
 15 16  2  0  0  0  0
 16  7  1  0  0  0  0
 16 14  1  0  0  0  0
 18  9  2  0  0  0  0
 19 36  1  0  0  0  0
 19  1  1  0  0  0  0
 20 19  2  0  0  0  0
 21 22  2  0  0  0  0
 21 20  1  0  0  0  0
 22 24  1  0  0  0  0
 23 25  1  0  0  0  0
 23 22  1  0  0  0  0
 24 36  2  0  0  0  0
 24 35  1  0  0  0  0
 25 27  2  0  0  0  0
 26 23  1  0  0  0  0
 28 25  1  0  0  0  0
 29 31  1  0  0  0  0
 29 26  1  0  0  0  0
 29 28  1  0  0  0  0
 30 29  1  0  0  0  0
 32 33  1  0  0  0  0
 32 30  1  0  0  0  0
 33 31  1  0  0  0  0
 34 26  2  0  0  0  0
M  END
