pdbs/div5-1515.pdb
 OpenBabel07211515343D

 37 41  0  0  0  0  0  0  0  0999 V2000
    0.5870   -0.1080    0.2390 Cl  0  0  0  0  0  0  0  0  0  0  0  0
   -2.4890   -2.5380   -0.7460 C   0  0  0  0  0  0  0  0  0  0  0  0
   -1.8280   -3.7640   -0.7870 C   0  0  0  0  0  0  0  0  0  0  0  0
   -1.7940   -1.3630   -0.4210 C   0  0  0  0  0  0  0  0  0  0  0  0
   -0.4800   -3.8630   -0.4630 C   0  0  0  0  0  0  0  0  0  0  0  0
   -0.4230   -1.4590   -0.1250 C   0  0  0  0  0  0  0  0  0  0  0  0
    0.2160   -2.7040   -0.1350 C   0  0  0  0  0  0  0  0  0  0  0  0
   -2.5740   -4.9700   -1.1760 C   0  0  0  0  0  0  0  0  0  0  0  0
   -3.3000   -5.4630   -0.3160 O   0  0  0  0  0  0  0  0  0  0  0  0
   -2.3350   -5.3330   -2.4390 N   0  0  0  0  0  0  0  0  0  0  0  0
   -3.0220   -6.3650   -2.9790 C   0  0  0  0  0  0  0  0  0  0  0  0
   -4.2510   -6.8620   -2.5160 C   0  0  0  0  0  0  0  0  0  0  0  0
   -4.9570   -7.8600   -3.1860 C   0  0  0  0  0  0  0  0  0  0  0  0
   -4.4370   -8.3620   -4.3700 C   0  0  0  0  0  0  0  0  0  0  0  0
   -3.2290   -7.9040   -4.8790 C   0  0  0  0  0  0  0  0  0  0  0  0
   -5.2180   -9.3170   -5.1360 C   0  0  0  0  0  0  0  0  0  0  0  0
   -2.5360   -6.9210   -4.1740 C   0  0  0  0  0  0  0  0  0  0  0  0
   -6.2080   -8.9530   -5.9250 N   0  0  0  0  0  0  0  0  0  0  0  0
   -4.9990  -10.6830   -5.0950 N   0  0  0  0  0  0  0  0  0  0  0  0
   -6.7710  -10.1330   -6.5130 C   0  0  0  0  0  0  0  0  0  0  0  0
   -5.9610  -11.3110   -5.9700 C   0  0  0  0  0  0  0  0  0  0  0  0
   -4.2600  -11.1030   -4.5450 H   0  0  0  0  0  0  0  0  0  0  0  0
   -2.5640   -0.0750   -0.3890 C   0  0  0  0  0  0  0  0  0  0  0  0
   -3.6400   -0.0410   -1.1820 N   0  0  0  0  0  0  0  0  0  0  0  0
   -2.1440    0.8620    0.2840 O   0  0  0  0  0  0  0  0  0  0  0  0
   -4.8400    0.0460   -0.5560 C   0  0  0  0  0  0  0  0  0  0  0  0
   -5.0490   -0.0330    0.8340 C   0  0  0  0  0  0  0  0  0  0  0  0
   -6.3240    0.0460    1.4030 C   0  0  0  0  0  0  0  0  0  0  0  0
   -7.4280    0.2100    0.5740 C   0  0  0  0  0  0  0  0  0  0  0  0
   -7.2630    0.2870   -0.8040 C   0  0  0  0  0  0  0  0  0  0  0  0
   -8.7820    0.3060    1.1230 C   0  0  0  0  0  0  0  0  0  0  0  0
   -5.9840    0.2000   -1.3500 C   0  0  0  0  0  0  0  0  0  0  0  0
   -9.0710    0.7690    2.3980 N   0  0  0  0  0  0  0  0  0  0  0  0
   -9.8560   -0.0210    0.4280 N   0  0  0  0  0  0  0  0  0  0  0  0
   -8.3550    1.0170    3.0690 H   0  0  0  0  0  0  0  0  0  0  0  0
  -10.5040    0.7420    2.5730 C   0  0  0  0  0  0  0  0  0  0  0  0
  -11.0170    0.2250    1.2310 C   0  0  0  0  0  0  0  0  0  0  0  0
  2  4  1  0  0  0  0
  3  2  2  0  0  0  0
  3  5  1  0  0  0  0
  4 23  1  0  0  0  0
  4  6  2  0  0  0  0
  5  7  2  0  0  0  0
  6  1  1  0  0  0  0
  7  6  1  0  0  0  0
  8  3  1  0  0  0  0
  8  9  2  0  0  0  0
 10  8  1  0  0  0  0
 11 12  1  0  0  0  0
 11 10  1  0  0  0  0
 13 12  2  0  0  0  0
 14 13  1  0  0  0  0
 15 14  2  0  0  0  0
 15 17  1  0  0  0  0
 16 19  1  0  0  0  0
 16 14  1  0  0  0  0
 17 11  2  0  0  0  0
 18 16  2  0  0  0  0
 19 22  1  0  0  0  0
 20 21  2  0  0  0  0
 20 18  1  0  0  0  0
 21 19  1  0  0  0  0
 23 25  2  0  0  0  0
 24 26  1  0  0  0  0
 24 23  1  0  0  0  0
 26 27  2  0  0  0  0
 27 28  1  0  0  0  0
 29 31  1  0  0  0  0
 29 28  2  0  0  0  0
 30 29  1  0  0  0  0
 31 33  1  0  0  0  0
 32 30  2  0  0  0  0
 32 26  1  0  0  0  0
 33 36  1  0  0  0  0
 33 35  1  0  0  0  0
 34 31  2  0  0  0  0
 34 37  1  0  0  0  0
 37 36  2  0  0  0  0
M  END
