pdbs/div5-984.pdb
 OpenBabel07211515343D

 22 25  0  0  0  0  0  0  0  0999 V2000
    2.9430    1.0180   -0.1840 C   0  0  0  0  0  0  0  0  0  0  0  0
    4.0730    0.2060   -0.2820 C   0  0  0  0  0  0  0  0  0  0  0  0
    1.6910    0.3960   -0.0220 C   0  0  0  0  0  0  0  0  0  0  0  0
    1.6360   -0.9960    0.0380 C   0  0  0  0  0  0  0  0  0  0  0  0
    2.7630   -1.8160   -0.0690 C   0  0  0  0  0  0  0  0  0  0  0  0
    3.9940   -1.1790   -0.2330 C   0  0  0  0  0  0  0  0  0  0  0  0
    0.3440    0.8810    0.0580 C   0  0  0  0  0  0  0  0  0  0  0  0
   -0.5000   -0.2300    0.1660 C   0  0  0  0  0  0  0  0  0  0  0  0
    0.3270   -1.3140    0.2410 N   0  0  0  0  0  0  0  0  0  0  0  0
   -0.0780   -2.2830   -0.7180 C   0  0  0  0  0  0  0  0  0  0  0  0
   -0.2280    2.1670    0.0010 C   0  0  0  0  0  0  0  0  0  0  0  0
   -1.6170    2.3000    0.0450 C   0  0  0  0  0  0  0  0  0  0  0  0
   -2.4350    1.1780    0.1360 C   0  0  0  0  0  0  0  0  0  0  0  0
   -1.8970   -0.1110    0.2010 C   0  0  0  0  0  0  0  0  0  0  0  0
   -2.7830   -1.2770    0.3130 C   0  0  0  0  0  0  0  0  0  0  0  0
   -2.3640   -2.4230    0.3780 O   0  0  0  0  0  0  0  0  0  0  0  0
   -4.2710   -1.0580    0.3410 C   0  0  0  0  0  0  0  0  0  0  0  0
   -4.7840    0.1690    0.2710 C   0  0  0  0  0  0  0  0  0  0  0  0
   -3.8900    1.3720    0.1710 C   0  0  0  0  0  0  0  0  0  0  0  0
   -4.4010    2.4810    0.1120 O   0  0  0  0  0  0  0  0  0  0  0  0
    5.2940    0.7940   -0.4390 O   0  0  0  0  0  0  0  0  0  0  0  0
    5.0410    2.1670   -0.4340 C   0  0  0  0  0  0  0  0  0  0  0  0
  1  3  2  0  0  0  0
  2  6  2  0  0  0  0
  2  1  1  0  0  0  0
  3  4  1  0  0  0  0
  3  7  1  0  0  0  0
  4  9  1  0  0  0  0
  5  4  2  0  0  0  0
  6  5  1  0  0  0  0
  7  8  2  0  0  0  0
  8 14  1  0  0  0  0
  8  9  1  0  0  0  0
 10  9  1  0  0  0  0
 11 12  2  0  0  0  0
 11  7  1  0  0  0  0
 12 13  1  0  0  0  0
 13 19  1  0  0  0  0
 13 14  2  0  0  0  0
 14 15  1  0  0  0  0
 15 17  1  0  0  0  0
 15 16  2  0  0  0  0
 18 17  2  0  0  0  0
 19 18  1  0  0  0  0
 20 19  2  0  0  0  0
 21 22  1  0  0  0  0
 21  2  1  0  0  0  0
M  END
