pdbs/div5-1384.pdb
 OpenBabel07211515343D

 29 24  0  0  0  0  0  0  0  0999 V2000
    0.2090   -0.2540    1.0390 C   0  0  0  0  0  0  0  0  0  0  0  0
    0.6140    0.5900    2.2240 C   0  0  0  0  0  0  0  0  0  0  0  0
    1.4130    1.7110    2.0480 C   0  0  0  0  0  0  0  0  0  0  0  0
    1.8050    2.4550    3.1600 C   0  0  0  0  0  0  0  0  0  0  0  0
    1.4170    2.1140    4.4670 C   0  0  0  0  0  0  0  0  0  0  0  0
    1.9850    2.8530    5.5140 N   0  0  0  0  0  0  0  0  0  0  0  0
    0.6690    0.9380    4.6250 C   0  0  0  0  0  0  0  0  0  0  0  0
    2.1830    3.8150    5.2480 H   0  0  0  0  0  0  0  0  0  0  0  0
    1.3840    2.7180    6.8300 C   0  0  0  0  0  0  0  0  0  0  0  0
    0.7990    0.9840    7.0140 C   0  0  0  0  0  0  0  0  0  0  0  0
    0.7970    0.9790    7.0150 C   0  0  0  0  0  0  0  0  0  0  0  0
    0.7980    0.9800    7.0150 C   0  0  0  0  0  0  0  0  0  0  0  0
    0.3370    0.3740    5.9270 C   0  0  0  0  0  0  0  0  0  0  0  0
   -0.5250   -0.8550    5.9620 C   0  0  0  0  0  0  0  0  0  0  0  0
    0.2520    0.2030    3.5110 C   0  0  0  0  0  0  0  0  0  0  0  0
   -1.1330   -0.0920    0.3670 C   0  0  0  0  0  0  0  0  0  0  0  0
   -1.2040    0.3020   -0.9620 C   0  0  0  0  0  0  0  0  0  0  0  0
   -2.4480    0.4220   -1.5790 C   0  0  0  0  0  0  0  0  0  0  0  0
   -3.6480    0.1550   -0.9010 C   0  0  0  0  0  0  0  0  0  0  0  0
   -4.8380    0.4470   -1.5780 N   0  0  0  0  0  0  0  0  0  0  0  0
   -3.5540   -0.1730    0.4600 C   0  0  0  0  0  0  0  0  0  0  0  0
   -6.0800   -0.0480   -1.0130 C   0  0  0  0  0  0  0  0  0  0  0  0
   -4.7640    0.3400   -2.5870 H   0  0  0  0  0  0  0  0  0  0  0  0
   -5.9140   -0.0510    0.8150 C   0  0  0  0  0  0  0  0  0  0  0  0
   -5.9130   -0.0510    0.8240 C   0  0  0  0  0  0  0  0  0  0  0  0
   -5.9130   -0.0510    0.8250 C   0  0  0  0  0  0  0  0  0  0  0  0
   -4.7150   -0.3060    1.3260 C   0  0  0  0  0  0  0  0  0  0  0  0
   -4.5070   -0.7310    2.7510 C   0  0  0  0  0  0  0  0  0  0  0  0
   -2.3080   -0.3300    1.0740 C   0  0  0  0  0  0  0  0  0  0  0  0
  1  2  1  0  0  0  0
  2 15  1  0  0  0  0
  3  2  2  0  0  0  0
  3  4  1  0  0  0  0
  4  5  2  0  0  0  0
  5  7  1  0  0  0  0
  5  6  1  0  0  0  0
  6  9  1  0  0  0  0
  8  6  1  0  0  0  0
  9 10  1  0  0  0  0
 13 11  3  0  0  0  0
 15  7  2  0  0  0  0
 16  1  1  0  0  0  0
 16 29  2  0  0  0  0
 17 16  1  0  0  0  0
 18 17  2  0  0  0  0
 18 19  1  0  0  0  0
 19 21  2  0  0  0  0
 20 22  1  0  0  0  0
 20 19  1  0  0  0  0
 21 29  1  0  0  0  0
 22 24  1  0  0  0  0
 23 20  1  0  0  0  0
 26 27  3  0  0  0  0
M  END
