pdbs/div5-1542.pdb
 OpenBabel07211515343D

 37 39  0  0  1  0  0  0  0  0999 V2000
    3.0620   -6.0480    5.1070 C   0  0  2  0  0  0  0  0  0  0  0  0
    2.6790   -5.5750    6.5180 C   0  0  0  0  0  0  0  0  0  0  0  0
    1.6980   -6.3700    7.3930 C   0  0  1  0  0  0  0  0  0  0  0  0
    2.8570   -7.5550    4.9080 C   0  0  0  0  0  0  0  0  0  0  0  0
    1.6770   -7.8910    7.1720 C   0  0  2  0  0  0  0  0  0  0  0  0
    2.6570   -8.4410    6.1380 C   0  0  2  0  0  0  0  0  0  0  0  0
    1.4160   -5.8730    8.6380 O   0  0  0  0  0  0  0  0  0  0  0  0
    3.6930   -9.2290    6.5600 O   0  0  0  0  0  0  0  0  0  0  0  0
    4.5220   -5.7050    4.8720 C   0  0  0  0  0  0  0  0  0  0  0  0
    4.8100   -4.4790    4.9500 O   0  0  0  0  0  0  0  0  0  0  0  0
    5.2640   -6.7070    4.6780 O   0  0  0  0  0  0  0  0  0  0  0  0
    2.2900   -5.3590    4.1300 O   0  0  0  0  0  0  0  0  0  0  0  0
    1.2540   -4.7310    4.7490 C   0  0  0  0  0  0  0  0  0  0  0  0
    0.0830   -4.9660    4.4800 O   0  0  0  0  0  0  0  0  0  0  0  0
    1.5670   -3.5040    5.5570 C   0  0  0  0  0  0  0  0  0  0  0  0
    2.1000   -2.4440    4.9540 C   0  0  0  0  0  0  0  0  0  0  0  0
    2.5670   -1.2790    5.7750 C   0  0  0  0  0  0  0  0  0  0  0  0
    2.3790   -1.2800    7.1520 C   0  0  0  0  0  0  0  0  0  0  0  0
    2.8500   -0.2680    8.0220 C   0  0  0  0  0  0  0  0  0  0  0  0
    3.5910    0.8130    7.4180 C   0  0  0  0  0  0  0  0  0  0  0  0
    2.6040   -0.3570    9.2760 O   0  0  0  0  0  0  0  0  0  0  0  0
    3.7440    0.7730    6.0110 C   0  0  0  0  0  0  0  0  0  0  0  0
    4.1060    1.7840    8.0760 O   0  0  0  0  0  0  0  0  0  0  0  0
    3.2500   -0.2370    5.1910 C   0  0  0  0  0  0  0  0  0  0  0  0
    0.6920   -8.7140    7.7410 O   0  0  0  0  0  0  0  0  0  0  0  0
   -0.3450   -8.6880    6.8620 C   0  0  0  0  0  0  0  0  0  0  0  0
   -0.2710   -9.1770    5.7420 O   0  0  0  0  0  0  0  0  0  0  0  0
   -1.5060   -7.7850    7.1680 C   0  0  0  0  0  0  0  0  0  0  0  0
   -1.2630   -6.5410    7.5720 C   0  0  0  0  0  0  0  0  0  0  0  0
   -2.3700   -5.5310    7.6590 C   0  0  0  0  0  0  0  0  0  0  0  0
   -2.0510   -4.1770    7.6960 C   0  0  0  0  0  0  0  0  0  0  0  0
   -2.9430   -3.1550    8.0950 C   0  0  0  0  0  0  0  0  0  0  0  0
   -4.2700   -3.5680    8.4770 C   0  0  0  0  0  0  0  0  0  0  0  0
   -2.5360   -1.9400    8.1080 O   0  0  0  0  0  0  0  0  0  0  0  0
   -4.5520   -4.9550    8.4090 C   0  0  0  0  0  0  0  0  0  0  0  0
   -5.1860   -2.7630    8.8700 O   0  0  0  0  0  0  0  0  0  0  0  0
   -3.6380   -5.9280    8.0200 C   0  0  0  0  0  0  0  0  0  0  0  0
  1 12  1  6  0  0  0
  1  2  1  0  0  0  0
  2  3  1  0  0  0  0
  3  7  1  1  0  0  0
  4  1  1  0  0  0  0
  4  6  1  0  0  0  0
  5  3  1  0  0  0  0
  5 25  1  6  0  0  0
  6  8  1  1  0  0  0
  6  5  1  0  0  0  0
  9 10  1  0  0  0  0
  9  1  1  0  0  0  0
 11  9  2  0  0  0  0
 12 13  1  0  0  0  0
 13 15  1  0  0  0  0
 14 13  2  0  0  0  0
 16 15  2  0  0  0  0
 16 17  1  0  0  0  0
 17 18  1  0  0  0  0
 18 19  2  0  0  0  0
 19 21  1  0  0  0  0
 20 19  1  0  0  0  0
 20 23  1  0  0  0  0
 22 20  2  0  0  0  0
 24 17  2  0  0  0  0
 24 22  1  0  0  0  0
 26 28  1  0  0  0  0
 26 25  1  0  0  0  0
 27 26  2  0  0  0  0
 28 29  2  0  0  0  0
 29 30  1  0  0  0  0
 30 31  2  0  0  0  0
 30 37  1  0  0  0  0
 31 32  1  0  0  0  0
 32 34  1  0  0  0  0
 32 33  2  0  0  0  0
 33 36  1  0  0  0  0
 35 33  1  0  0  0  0
 37 35  2  0  0  0  0
M  END
