pdbs/div5-1578.pdb
 OpenBabel07211515353D

 34 38  0  0  1  0  0  0  0  0999 V2000
    4.5450    2.1480    0.1160 H   0  0  0  0  0  0  0  0  0  0  0  0
    3.8660   -0.0570    1.0460 O   0  0  0  0  0  0  0  0  0  0  0  0
    5.2960    1.4840   -0.0550 N   0  0  0  0  0  0  0  0  0  0  0  0
    6.3940    1.8290   -0.9440 C   0  0  0  0  0  0  0  0  0  0  0  0
    7.5800    0.8740   -0.9190 C   0  0  2  0  0  0  0  0  0  0  0  0
    7.1090   -0.5750   -0.9490 C   0  0  0  0  0  0  0  0  0  0  0  0
    5.8730   -0.8670   -0.0840 C   0  0  0  0  0  0  0  0  0  0  0  0
    4.7120    0.1390   -0.1210 C   0  0  1  0  0  0  0  0  0  0  0  0
    3.7680    0.1110   -1.3390 C   0  0  1  0  0  0  0  0  0  0  0  0
    2.3940    0.4500   -0.8110 C   0  0  2  0  0  0  0  0  0  0  0  0
    2.6560    0.5550    0.6640 C   0  0  1  0  0  0  0  0  0  0  0  0
    1.0840   -0.3140   -1.2670 C   0  0  2  0  0  0  0  0  0  0  0  0
   -0.1320    0.0010   -2.1560 C   0  0  0  0  0  0  0  0  0  0  0  0
   -1.4920   -0.6300   -1.8580 C   0  0  0  0  0  0  0  0  0  0  0  0
    0.3440    0.2210    0.2670 C   0  0  0  0  0  0  0  0  0  0  0  0
   -2.0630   -0.3060   -0.4860 C   0  0  2  0  0  0  0  0  0  0  0  0
    1.3540    0.3670    1.3820 C   0  0  0  0  0  0  0  0  0  0  0  0
   -1.0660   -0.2190    0.6490 C   0  0  2  0  0  0  0  0  0  0  0  0
   -3.5170   -0.6210   -0.1370 C   0  0  2  0  0  0  0  0  0  0  0  0
   -4.4670   -0.2860   -1.2800 C   0  0  0  0  0  0  0  0  0  0  0  0
   -5.9610   -0.3800   -0.9800 C   0  0  0  0  0  0  0  0  0  0  0  0
   -1.6230    0.2680    1.9780 C   0  0  0  0  0  0  0  0  0  0  0  0
   -3.9220    0.1570    1.0710 C   0  0  2  0  0  0  0  0  0  0  0  0
   -6.3910    0.2460    0.3430 C   0  0  2  0  0  0  0  0  0  0  0  0
   -3.1370    0.2160    2.1520 C   0  0  0  0  0  0  0  0  0  0  0  0
   -5.3710    0.1770    1.4770 C   0  0  0  0  0  0  0  0  0  0  0  0
   -3.3460   -2.0960    0.2480 C   0  0  0  0  0  0  0  0  0  0  0  0
    0.3760    0.1980    0.2020 C   0  0  0  0  0  0  0  0  0  0  0  0
    4.2430    0.6720   -2.6820 C   0  0  0  0  0  0  0  0  0  0  0  0
    8.7330    1.2320    0.0300 C   0  0  0  0  0  0  0  0  0  0  0  0
   -7.7420    0.4210    0.6300 O   0  0  0  0  0  0  0  0  0  0  0  0
   -8.1300   -0.7210    1.2520 C   0  0  0  0  0  0  0  0  0  0  0  0
   -7.4050   -1.6980    1.3760 O   0  0  0  0  0  0  0  0  0  0  0  0
   -9.4970   -0.7540    1.8760 C   0  0  0  0  0  0  0  0  0  0  0  0
  3  1  1  0  0  0  0
  4  5  1  0  0  0  0
  4  3  1  0  0  0  0
  5 30  1  1  0  0  0
  6  5  1  0  0  0  0
  6  7  1  0  0  0  0
  8  7  1  6  0  0  0
  8  3  1  0  0  0  0
  8  2  1  0  0  0  0
  9 29  1  1  0  0  0
  9  8  1  0  0  0  0
 10  9  1  1  0  0  0
 10 11  1  0  0  0  0
 11  2  1  6  0  0  0
 11 17  1  0  0  0  0
 12 10  1  0  0  0  0
 12 28  1  6  0  0  0
 13 14  1  0  0  0  0
 13 12  1  0  0  0  0
 15 17  1  0  0  0  0
 16 14  1  1  0  0  0
 16 19  1  0  0  0  0
 16 18  1  0  0  0  0
 18 15  1  6  0  0  0
 18 22  1  0  0  0  0
 19 27  1  1  0  0  0
 19 23  1  0  0  0  0
 20 21  1  0  0  0  0
 20 19  1  0  0  0  0
 21 24  1  0  0  0  0
 22 25  1  0  0  0  0
 23 26  1  1  0  0  0
 23 25  1  0  0  0  0
 24 31  1  1  0  0  0
 24 26  1  0  0  0  0
 31 32  1  0  0  0  0
 32 33  2  0  0  0  0
 32 34  1  0  0  0  0
M  END
