pdbs/div5-1057.pdb
 OpenBabel07211515343D

 24 27  0  0  1  0  0  0  0  0999 V2000
   -5.2360   -3.2060   -1.2560 O   0  0  0  0  0  0  0  0  0  0  0  0
   -1.5890    1.8620    0.6200 O   0  0  0  0  0  0  0  0  0  0  0  0
    2.7920    1.6500   -1.4470 C   0  0  2  0  0  0  0  0  0  0  0  0
    1.5980    1.2440   -0.5520 C   0  0  1  0  0  0  0  0  0  0  0  0
    3.7390    0.4270   -1.3660 C   0  0  0  0  0  0  0  0  0  0  0  0
    0.2510    1.9130   -0.8690 C   0  0  0  0  0  0  0  0  0  0  0  0
   -0.8630    1.2110   -0.0960 C   0  0  0  0  0  0  0  0  0  0  0  0
    2.8850   -0.7780   -0.9220 C   0  0  0  0  0  0  0  0  0  0  0  0
    1.4490   -0.2430   -0.9400 C   0  0  1  0  0  0  0  0  0  0  0  0
   -0.9930   -0.3010   -0.3070 C   0  0  1  0  0  0  0  0  0  0  0  0
    0.3830   -0.9920   -0.1260 C   0  0  1  0  0  0  0  0  0  0  0  0
   -2.1300   -1.0400    0.4500 C   0  0  1  0  0  0  0  0  0  0  0  0
   -3.4890   -0.5050    0.0500 C   0  0  0  0  0  0  0  0  0  0  0  0
   -4.4650   -1.2480   -0.4880 C   0  0  0  0  0  0  0  0  0  0  0  0
    0.3220   -2.4760   -0.5240 C   0  0  0  0  0  0  0  0  0  0  0  0
   -2.0820   -2.5040    0.0460 C   0  0  0  0  0  0  0  0  0  0  0  0
   -4.3260   -2.5680   -0.7670 C   0  0  0  0  0  0  0  0  0  0  0  0
   -0.7660   -3.2130    0.2650 C   0  0  0  0  0  0  0  0  0  0  0  0
   -3.1280   -3.1480   -0.4960 C   0  0  0  0  0  0  0  0  0  0  0  0
   -2.0310   -0.9390    1.9860 C   0  0  0  0  0  0  0  0  0  0  0  0
    1.9490    1.4840    0.9320 C   0  0  0  0  0  0  0  0  0  0  0  0
    3.4400    3.0000   -1.1500 C   0  0  0  0  0  0  0  0  0  0  0  0
    4.5530    3.1020   -0.6870 O   0  0  0  0  0  0  0  0  0  0  0  0
    2.6410    4.2510   -1.4740 C   0  0  0  0  0  0  0  0  0  0  0  0
  1 17  2  0  0  0  0
  3  5  1  0  0  0  0
  3 22  1  1  0  0  0
  3  4  1  0  0  0  0
  4 21  1  1  0  0  0
  5  8  1  0  0  0  0
  6  4  1  0  0  0  0
  6  7  1  0  0  0  0
  7  2  2  0  0  0  0
  9  8  1  1  0  0  0
  9  4  1  0  0  0  0
  9 11  1  0  0  0  0
 10 11  1  0  0  0  0
 10  7  1  1  0  0  0
 10 12  1  0  0  0  0
 11 15  1  6  0  0  0
 12 20  1  1  0  0  0
 13 12  1  0  0  0  0
 14 13  2  0  0  0  0
 15 18  1  0  0  0  0
 16 18  1  0  0  0  0
 16 12  1  0  0  0  0
 17 19  1  0  0  0  0
 17 14  1  0  0  0  0
 19 16  2  0  0  0  0
 22 23  2  0  0  0  0
 24 22  1  0  0  0  0
M  END
