pdbs/div5-1003.pdb
 OpenBabel07211515343D

 26 29  0  0  1  0  0  0  0  0999 V2000
   -3.5060   -4.9800   -1.5640 O   0  0  0  0  0  0  0  0  0  0  0  0
   -0.1360   -0.6950   -0.9700 F   0  0  0  0  0  0  0  0  0  0  0  0
    2.2030    2.5680    0.8910 C   0  0  1  0  0  0  0  0  0  0  0  0
    3.1820    1.8070    1.8170 C   0  0  0  0  0  0  0  0  0  0  0  0
    0.8510    1.8480    1.1310 C   0  0  1  0  0  0  0  0  0  0  0  0
   -0.1850    1.9800    0.0000 C   0  0  0  0  0  0  0  0  0  0  0  0
   -1.3030    0.9280    0.0690 C   0  0  1  0  0  0  0  0  0  0  0  0
    2.5440    0.4280    2.0980 C   0  0  0  0  0  0  0  0  0  0  0  0
    1.3540    0.3840    1.1310 C   0  0  1  0  0  0  0  0  0  0  0  0
   -0.7890   -0.5020    0.1820 C   0  0  2  0  0  0  0  0  0  0  0  0
    0.2210   -0.6360    1.3290 C   0  0  1  0  0  0  0  0  0  0  0  0
   -1.8490   -1.6200    0.2520 C   0  0  1  0  0  0  0  0  0  0  0  0
   -2.9130   -1.4650   -0.8570 C   0  0  0  0  0  0  0  0  0  0  0  0
   -3.8070   -2.7030   -0.9940 C   0  0  0  0  0  0  0  0  0  0  0  0
    0.7060   -2.0860    1.5430 C   0  0  0  0  0  0  0  0  0  0  0  0
   -1.1390   -2.9470    0.0050 C   0  0  0  0  0  0  0  0  0  0  0  0
   -3.0070   -3.9930   -1.0670 C   0  0  0  0  0  0  0  0  0  0  0  0
    0.3140   -3.0510    0.4200 C   0  0  0  0  0  0  0  0  0  0  0  0
   -1.7370   -3.9940   -0.5880 C   0  0  0  0  0  0  0  0  0  0  0  0
   -2.5770   -1.7330    1.6130 C   0  0  0  0  0  0  0  0  0  0  0  0
    0.2630    2.3260    2.4810 C   0  0  0  0  0  0  0  0  0  0  0  0
    2.2470    4.0860    0.9960 C   0  0  0  0  0  0  0  0  0  0  0  0
    1.2520    4.7700    0.9190 O   0  0  0  0  0  0  0  0  0  0  0  0
    3.6160    4.7290    1.1470 C   0  0  0  0  0  0  0  0  0  0  0  0
   -2.1850    1.2380    1.1170 O   0  0  0  0  0  0  0  0  0  0  0  0
   -2.3320    2.1850    1.1590 H   0  0  0  0  0  0  0  0  0  0  0  0
  1 17  2  0  0  0  0
  3 22  1  1  0  0  0
  3  5  1  0  0  0  0
  3  4  1  0  0  0  0
  4  8  1  0  0  0  0
  5 21  1  1  0  0  0
  6  7  1  0  0  0  0
  6  5  1  0  0  0  0
  7 10  1  0  0  0  0
  7 25  1  1  0  0  0
  9  5  1  0  0  0  0
  9 11  1  0  0  0  0
  9  8  1  1  0  0  0
 10  2  1  6  0  0  0
 10 12  1  0  0  0  0
 10 11  1  0  0  0  0
 11 15  1  6  0  0  0
 12 20  1  1  0  0  0
 13 12  1  0  0  0  0
 14 13  1  0  0  0  0
 16 12  1  0  0  0  0
 16 18  1  0  0  0  0
 17 14  1  0  0  0  0
 17 19  1  0  0  0  0
 18 15  1  0  0  0  0
 19 16  2  0  0  0  0
 22 24  1  0  0  0  0
 23 22  2  0  0  0  0
 25 26  1  0  0  0  0
M  END
