pdbs/div5-1546.pdb
 OpenBabel07211515343D

 38 42  0  0  1  0  0  0  0  0999 V2000
   -0.4440    0.9560   -0.4450 C   0  0  0  0  0  0  0  0  0  0  0  0
   -1.8050    1.2590   -0.3740 C   0  0  0  0  0  0  0  0  0  0  0  0
   -0.0020   -0.3130   -0.0770 C   0  0  0  0  0  0  0  0  0  0  0  0
   -2.7360    0.3110    0.0630 C   0  0  0  0  0  0  0  0  0  0  0  0
   -0.9170   -1.2810    0.3390 C   0  0  0  0  0  0  0  0  0  0  0  0
   -2.2720   -0.9560    0.4360 C   0  0  0  0  0  0  0  0  0  0  0  0
    1.4330   -0.6450   -0.2290 C   0  0  0  0  0  0  0  0  0  0  0  0
    1.9410   -0.4260   -1.3270 O   0  0  0  0  0  0  0  0  0  0  0  0
    1.9760   -1.1830    0.8700 N   0  0  0  0  0  0  0  0  0  0  0  0
    3.3080   -1.4150    0.8350 C   0  0  0  0  0  0  0  0  0  0  0  0
    4.1410   -0.8300    1.7970 C   0  0  0  0  0  0  0  0  0  0  0  0
    5.4820   -1.1980    1.9330 C   0  0  0  0  0  0  0  0  0  0  0  0
    6.0310   -2.1870    1.1170 C   0  0  0  0  0  0  0  0  0  0  0  0
    5.2320   -2.7500    0.1220 C   0  0  0  0  0  0  0  0  0  0  0  0
    3.8870   -2.3850    0.0050 C   0  0  0  0  0  0  0  0  0  0  0  0
    7.3770   -2.5560    1.2500 N   0  0  0  0  0  0  0  0  0  0  0  0
    7.5840   -3.4850    2.1240 C   0  0  2  0  0  0  0  0  0  0  0  0
    8.8310   -4.3450    2.1090 C   0  0  0  0  0  0  0  0  0  0  0  0
    6.5430   -4.5290    2.4650 C   0  0  0  0  0  0  0  0  0  0  0  0
    9.0020   -5.3000    3.0270 C   0  0  0  0  0  0  0  0  0  0  0  0
    8.0470   -5.4610    4.1500 N   0  0  0  0  0  0  0  0  0  0  0  0
    6.8260   -5.5010    3.3370 C   0  0  0  0  0  0  0  0  0  0  0  0
    8.6350   -6.6800    4.7060 C   0  0  0  0  0  0  0  0  0  0  0  0
   -4.0720    0.7150    0.2370 N   0  0  0  0  0  0  0  0  0  0  0  0
   -4.9820   -0.1580   -0.0540 C   0  0  0  0  0  0  0  0  0  0  0  0
   -6.4160    0.1400    0.0690 C   0  0  0  0  0  0  0  0  0  0  0  0
   -4.5810   -1.5460   -0.4670 C   0  0  0  0  0  0  0  0  0  0  0  0
   -7.3380   -0.8800   -0.2020 C   0  0  0  0  0  0  0  0  0  0  0  0
   -6.8410    1.4180    0.4290 C   0  0  0  0  0  0  0  0  0  0  0  0
   -6.9230   -2.1800   -0.5500 N   0  0  0  0  0  0  0  0  0  0  0  0
   -8.7080   -0.5970   -0.1250 C   0  0  0  0  0  0  0  0  0  0  0  0
   -5.5080   -2.4790   -0.6920 C   0  0  0  0  0  0  0  0  0  0  0  0
   -7.9130   -3.2110   -0.7930 C   0  0  0  0  0  0  0  0  0  0  0  0
   -9.1550    0.6800    0.2050 C   0  0  0  0  0  0  0  0  0  0  0  0
   -8.2100    1.6620    0.4860 C   0  0  0  0  0  0  0  0  0  0  0  0
   -8.6660    2.9890    0.8200 N   0  0  0  0  0  0  0  0  0  0  0  0
   -8.0740    3.9410    0.2930 O   0  0  0  0  0  0  0  0  0  0  0  0
   -9.6170    3.0820    1.6070 O   0  0  0  0  0  0  0  0  0  0  0  0
  1  2  2  0  0  0  0
  1  3  1  0  0  0  0
  2  4  1  0  0  0  0
  3  5  2  0  0  0  0
  4 24  1  0  0  0  0
  4  6  2  0  0  0  0
  5  6  1  0  0  0  0
  7  3  1  0  0  0  0
  7  9  1  0  0  0  0
  8  7  2  0  0  0  0
 10  9  1  0  0  0  0
 10 11  2  0  0  0  0
 11 12  1  0  0  0  0
 13 16  1  0  0  0  0
 13 12  2  0  0  0  0
 14 13  1  0  0  0  0
 15 14  2  0  0  0  0
 15 10  1  0  0  0  0
 17 16  1  6  0  0  0
 17 19  1  0  0  0  0
 18 17  1  0  0  0  0
 18 20  2  0  0  0  0
 19 22  2  0  0  0  0
 20 21  1  0  0  0  0
 21 23  1  0  0  0  0
 22 21  1  0  0  0  0
 25 26  1  0  0  0  0
 25 24  2  0  0  0  0
 26 29  2  0  0  0  0
 27 25  1  0  0  0  0
 28 31  2  0  0  0  0
 28 26  1  0  0  0  0
 29 35  1  0  0  0  0
 30 28  1  0  0  0  0
 31 34  1  0  0  0  0
 32 30  1  0  0  0  0
 32 27  2  0  0  0  0
 33 30  1  0  0  0  0
 34 35  2  0  0  0  0
 35 36  1  0  0  0  0
 36 38  2  0  0  0  0
 37 36  2  0  0  0  0
M  END
