pdbs/div5-1547.pdb
 OpenBabel07211515343D

 40 45  0  0  1  0  0  0  0  0999 V2000
    1.4600    2.6460    2.7750 C   0  0  0  0  0  0  0  0  0  0  0  0
    0.3160    2.7830    1.9840 C   0  0  0  0  0  0  0  0  0  0  0  0
   -0.9460    3.2250   -1.0640 C   0  0  0  0  0  0  0  0  0  0  0  0
   -2.1030    3.1510   -1.8440 C   0  0  0  0  0  0  0  0  0  0  0  0
    2.6330    1.9010    2.5300 C   0  0  0  0  0  0  0  0  0  0  0  0
    0.3960    2.0890    0.7550 C   0  0  2  0  0  0  0  0  0  0  0  0
   -0.7890    2.1260   -0.1900 C   0  0  2  0  0  0  0  0  0  0  0  0
   -3.0860    2.1400   -1.8940 C   0  0  0  0  0  0  0  0  0  0  0  0
    1.5550    1.3290    0.4110 C   0  0  0  0  0  0  0  0  0  0  0  0
   -1.7260    1.0420   -0.1880 C   0  0  0  0  0  0  0  0  0  0  0  0
   -2.8810    0.9970   -1.0320 C   0  0  0  0  0  0  0  0  0  0  0  0
    2.6850    1.1790    1.2770 C   0  0  0  0  0  0  0  0  0  0  0  0
    1.5600    0.6990   -0.8290 C   0  0  0  0  0  0  0  0  0  0  0  0
    3.8020    0.3100    0.8460 C   0  0  0  0  0  0  0  0  0  0  0  0
   -1.4750   -0.0210    0.6730 C   0  0  0  0  0  0  0  0  0  0  0  0
   -3.7640   -0.1900   -0.9690 C   0  0  0  0  0  0  0  0  0  0  0  0
   -2.2600   -1.1500    0.7450 C   0  0  0  0  0  0  0  0  0  0  0  0
   -3.3930   -1.2340   -0.0550 C   0  0  0  0  0  0  0  0  0  0  0  0
    3.6950   -0.3070   -0.4460 C   0  0  0  0  0  0  0  0  0  0  0  0
    2.5820   -0.1160   -1.2630 C   0  0  0  0  0  0  0  0  0  0  0  0
    2.4030   -0.6270   -2.5200 O   0  0  0  0  0  0  0  0  0  0  0  0
    4.7700   -1.2030   -0.9790 C   0  0  0  0  0  0  0  0  0  0  0  0
   -4.2040   -2.4760    0.0750 C   0  0  0  0  0  0  0  0  0  0  0  0
    5.9110   -1.2720   -0.5510 O   0  0  0  0  0  0  0  0  0  0  0  0
   -5.3900   -2.5670   -0.1920 O   0  0  0  0  0  0  0  0  0  0  0  0
   -1.8710   -2.0560    1.6910 O   0  0  0  0  0  0  0  0  0  0  0  0
   -2.1420   -3.3440    1.2300 C   0  0  2  0  0  0  0  0  0  0  0  0
    2.9520   -1.9050   -2.5310 C   0  0  1  0  0  0  0  0  0  0  0  0
   -3.5500   -3.6290    0.7500 C   0  0  2  0  0  0  0  0  0  0  0  0
    4.4240   -1.9750   -2.2040 C   0  0  2  0  0  0  0  0  0  0  0  0
   -0.6770    3.4820    2.3840 O   0  0  0  0  0  0  0  0  0  0  0  0
   -0.1430    4.2120   -1.1780 O   0  0  0  0  0  0  0  0  0  0  0  0
    3.5430    1.9190    3.4280 O   0  0  0  0  0  0  0  0  0  0  0  0
   -4.0690    2.3110   -2.6950 O   0  0  0  0  0  0  0  0  0  0  0  0
    4.8220    0.0940    1.5940 O   0  0  0  0  0  0  0  0  0  0  0  0
   -4.8070   -0.3040   -1.7070 O   0  0  0  0  0  0  0  0  0  0  0  0
    5.2270   -3.2250   -2.5820 C   0  0  0  0  0  0  0  0  0  0  0  0
   -3.9300   -5.0500    0.3150 C   0  0  0  0  0  0  0  0  0  0  0  0
   -1.3380   -4.5060    1.8230 C   0  0  0  0  0  0  0  0  0  0  0  0
    2.0650   -3.0750   -2.0870 C   0  0  0  0  0  0  0  0  0  0  0  0
  2 31  2  0  0  0  0
  2  1  1  0  0  0  0
  4  3  1  0  0  0  0
  5  1  1  0  0  0  0
  5 33  2  0  0  0  0
  6  9  1  1  0  0  0
  6  2  1  0  0  0  0
  7  3  1  6  0  0  0
  7 10  1  0  0  0  0
  7  6  1  0  0  0  0
  8  4  1  0  0  0  0
  8 11  1  0  0  0  0
  9 12  2  0  0  0  0
 10 15  2  0  0  0  0
 11 16  2  0  0  0  0
 11 10  1  0  0  0  0
 12  5  1  0  0  0  0
 13  9  1  0  0  0  0
 14 12  1  0  0  0  0
 14 35  1  0  0  0  0
 15 17  1  0  0  0  0
 16 18  1  0  0  0  0
 17 26  1  0  0  0  0
 18 23  1  0  0  0  0
 18 17  2  0  0  0  0
 19 14  2  0  0  0  0
 20 13  2  0  0  0  0
 20 19  1  0  0  0  0
 21 20  1  0  0  0  0
 22 24  2  0  0  0  0
 22 19  1  0  0  0  0
 23 29  1  0  0  0  0
 25 23  2  0  0  0  0
 27 26  1  0  0  0  0
 27 39  1  1  0  0  0
 28 21  1  0  0  0  0
 28 30  1  0  0  0  0
 28 40  1  1  0  0  0
 29 38  1  6  0  0  0
 29 27  1  0  0  0  0
 30 37  1  1  0  0  0
 30 22  1  0  0  0  0
 32  3  2  0  0  0  0
 34  8  2  0  0  0  0
 36 16  1  0  0  0  0
M  END
