pdbs/div5-1114.pdb
 OpenBabel07211515343D

 25 29  0  0  0  0  0  0  0  0999 V2000
    0.6070   -1.8000   -0.3290 O   0  0  0  0  0  0  0  0  0  0  0  0
    3.6110    2.5910   -0.3250 O   0  0  0  0  0  0  0  0  0  0  0  0
   -1.6670   -0.2820    0.1000 N   0  0  0  0  0  0  0  0  0  0  0  0
   -3.1510   -1.7660   -0.4340 N   0  0  0  0  0  0  0  0  0  0  0  0
   -2.4070   -0.7770   -0.9160 N   0  0  0  0  0  0  0  0  0  0  0  0
   -3.3680   -2.7990    1.8530 C   0  0  0  0  0  0  0  0  0  0  0  0
   -2.8770   -2.7080    3.1590 C   0  0  0  0  0  0  0  0  0  0  0  0
   -2.8740   -1.8980    0.9000 C   0  0  0  0  0  0  0  0  0  0  0  0
   -1.9310   -0.9490    1.2750 C   0  0  0  0  0  0  0  0  0  0  0  0
   -1.9280   -1.7480    3.5080 C   0  0  0  0  0  0  0  0  0  0  0  0
   -1.4270   -0.8360    2.5740 C   0  0  0  0  0  0  0  0  0  0  0  0
   -0.7690    0.7710   -0.0950 C   0  0  0  0  0  0  0  0  0  0  0  0
   -1.3240    2.0530   -0.1370 C   0  0  0  0  0  0  0  0  0  0  0  0
    0.6190    0.5720   -0.1630 C   0  0  0  0  0  0  0  0  0  0  0  0
    1.2540   -0.7740   -0.1640 C   0  0  0  0  0  0  0  0  0  0  0  0
    2.7140   -0.8720   -0.0060 C   0  0  0  0  0  0  0  0  0  0  0  0
    3.2970   -2.1280    0.1660 C   0  0  0  0  0  0  0  0  0  0  0  0
    4.6780   -2.2390    0.3140 C   0  0  0  0  0  0  0  0  0  0  0  0
   -0.4950    3.1620   -0.2530 C   0  0  0  0  0  0  0  0  0  0  0  0
    1.4370    1.7050   -0.2360 C   0  0  0  0  0  0  0  0  0  0  0  0
    3.5120    0.2670   -0.0390 C   0  0  0  0  0  0  0  0  0  0  0  0
    5.4760   -1.0980    0.2790 C   0  0  0  0  0  0  0  0  0  0  0  0
    0.8840    2.9890   -0.2880 C   0  0  0  0  0  0  0  0  0  0  0  0
    2.9080    1.5950   -0.2200 C   0  0  0  0  0  0  0  0  0  0  0  0
    4.8950    0.1560    0.1000 C   0  0  0  0  0  0  0  0  0  0  0  0
  1 15  2  0  0  0  0
  2 24  2  0  0  0  0
  3  9  1  0  0  0  0
  4  8  1  0  0  0  0
  5  4  2  0  0  0  0
  5  3  1  0  0  0  0
  6  7  2  0  0  0  0
  7 10  1  0  0  0  0
  8  9  2  0  0  0  0
  8  6  1  0  0  0  0
  9 11  1  0  0  0  0
 11 10  2  0  0  0  0
 12  3  1  0  0  0  0
 13 12  2  0  0  0  0
 14 12  1  0  0  0  0
 15 14  1  0  0  0  0
 15 16  1  0  0  0  0
 16 17  1  0  0  0  0
 17 18  2  0  0  0  0
 19 13  1  0  0  0  0
 20 24  1  0  0  0  0
 20 14  2  0  0  0  0
 21 16  2  0  0  0  0
 21 25  1  0  0  0  0
 22 18  1  0  0  0  0
 23 19  2  0  0  0  0
 23 20  1  0  0  0  0
 24 21  1  0  0  0  0
 25 22  2  0  0  0  0
M  END
