pdbs/div5-1454.pdb
 OpenBabel07211515343D

 27 32  0  0  1  0  0  0  0  0999 V2000
   -7.4830    0.0360    0.1780 C   0  0  0  0  0  0  0  0  0  0  0  0
   -7.1760   -1.0700    1.1850 C   0  0  0  0  0  0  0  0  0  0  0  0
   -6.0550   -1.9320    0.6090 C   0  0  0  0  0  0  0  0  0  0  0  0
   -4.8770   -1.0700    0.2140 C   0  0  0  0  0  0  0  0  0  0  0  0
   -5.0150    0.2220   -0.1640 C   0  0  0  0  0  0  0  0  0  0  0  0
   -6.2390    0.8250   -0.2160 C   0  0  0  0  0  0  0  0  0  0  0  0
   -3.6520   -1.6320    0.2480 C   0  0  0  0  0  0  0  0  0  0  0  0
   -2.5750   -0.9160   -0.0930 C   0  0  0  0  0  0  0  0  0  0  0  0
   -2.7100    0.3590   -0.4660 C   0  0  0  0  0  0  0  0  0  0  0  0
   -3.9190    0.9320   -0.5040 C   0  0  0  0  0  0  0  0  0  0  0  0
   -1.1400   -1.3590   -0.1100 C   0  0  0  0  0  0  0  0  0  0  0  0
   -1.3840    0.9850   -0.7960 C   0  0  0  0  0  0  0  0  0  0  0  0
   -0.4040    0.0000   -0.1010 C   0  0  2  0  0  0  0  0  0  0  0  0
    0.9810   -0.0220   -0.7880 C   0  0  0  0  0  0  0  0  0  0  0  0
    1.6970    1.0660   -0.0390 C   0  0  0  0  0  0  0  0  0  0  0  0
    1.1000    1.3510    1.1200 C   0  0  0  0  0  0  0  0  0  0  0  0
   -0.1190    0.5010    1.3420 C   0  0  0  0  0  0  0  0  0  0  0  0
    2.7940    1.7330   -0.4110 C   0  0  0  0  0  0  0  0  0  0  0  0
    3.3040    2.6940    0.3850 C   0  0  0  0  0  0  0  0  0  0  0  0
    2.7010    2.9840    1.5620 C   0  0  0  0  0  0  0  0  0  0  0  0
    1.5920    2.3030    1.9220 C   0  0  0  0  0  0  0  0  0  0  0  0
    4.5470    3.4120   -0.0900 C   0  0  0  0  0  0  0  0  0  0  0  0
    4.5930    4.8290    0.4770 C   0  0  0  0  0  0  0  0  0  0  0  0
    4.4330    4.7320    1.9930 C   0  0  0  0  0  0  0  0  0  0  0  0
    3.1900    3.9470    2.3970 C   0  0  0  0  0  0  0  0  0  0  0  0
   -6.4180    1.9730   -0.5680 O   0  0  0  0  0  0  0  0  0  0  0  0
    2.6990    4.2290    3.4710 O   0  0  0  0  0  0  0  0  0  0  0  0
  1  2  1  0  0  0  0
  3  2  1  0  0  0  0
  4  7  1  0  0  0  0
  4  3  1  0  0  0  0
  5  4  2  0  0  0  0
  6  5  1  0  0  0  0
  6  1  1  0  0  0  0
  8  7  2  0  0  0  0
  9  8  1  0  0  0  0
 10  9  2  0  0  0  0
 10  5  1  0  0  0  0
 11 13  1  0  0  0  0
 11  8  1  0  0  0  0
 12  9  1  0  0  0  0
 13 12  1  6  0  0  0
 13 17  1  0  0  0  0
 14 13  1  0  0  0  0
 14 15  1  0  0  0  0
 15 16  1  0  0  0  0
 16 17  1  0  0  0  0
 16 21  2  0  0  0  0
 18 15  2  0  0  0  0
 18 19  1  0  0  0  0
 19 20  2  0  0  0  0
 20 21  1  0  0  0  0
 20 25  1  0  0  0  0
 22 19  1  0  0  0  0
 22 23  1  0  0  0  0
 23 24  1  0  0  0  0
 24 25  1  0  0  0  0
 25 27  2  0  0  0  0
 26  6  2  0  0  0  0
M  END
