pdbs/ncv1e.pdb
 OpenBabel07211515353D

 30 33  0  0  0  0  0  0  0  0999 V2000
   -0.5480   -0.4670    0.8790 C   0  0  0  0  0  0  0  0  0  0  0  0
   -1.8530   -0.8280    0.8840 C   0  0  0  0  0  0  0  0  0  0  0  0
    0.3430   -0.5890    1.9080 C   0  0  0  0  0  0  0  0  0  0  0  0
    0.0210   -1.0600    2.9790 O   0  0  0  0  0  0  0  0  0  0  0  0
    1.6180   -0.1530    1.6720 C   0  0  0  0  0  0  0  0  0  0  0  0
    2.6140   -0.2010    2.5790 C   0  0  0  0  0  0  0  0  0  0  0  0
    3.8920    0.2080    2.4220 C   0  0  0  0  0  0  0  0  0  0  0  0
    4.7560    0.0820    3.4490 C   0  0  0  0  0  0  0  0  0  0  0  0
    6.0460    0.4660    3.4010 C   0  0  0  0  0  0  0  0  0  0  0  0
    6.5290    0.9720    2.2470 C   0  0  0  0  0  0  0  0  0  0  0  0
    6.8510    0.2780    4.4950 O   0  0  0  0  0  0  0  0  0  0  0  0
    5.6760    1.1220    1.2190 C   0  0  0  0  0  0  0  0  0  0  0  0
    7.8290    1.3880    2.1230 O   0  0  0  0  0  0  0  0  0  0  0  0
    4.3900    0.7500    1.2950 C   0  0  0  0  0  0  0  0  0  0  0  0
    8.5000    1.5450    3.3440 C   0  0  0  0  0  0  0  0  0  0  0  0
    8.2240    0.3380    4.2180 C   0  0  0  0  0  0  0  0  0  0  0  0
   -2.5640   -0.6190   -0.2480 C   0  0  0  0  0  0  0  0  0  0  0  0
   -3.8680   -0.9290   -0.3830 C   0  0  0  0  0  0  0  0  0  0  0  0
   -4.6530   -0.7560   -1.4690 C   0  0  0  0  0  0  0  0  0  0  0  0
   -5.9450   -1.1300   -1.4060 C   0  0  0  0  0  0  0  0  0  0  0  0
   -6.7610   -0.9880   -2.4600 C   0  0  0  0  0  0  0  0  0  0  0  0
   -6.3350   -0.4760   -3.6270 C   0  0  0  0  0  0  0  0  0  0  0  0
   -5.0530   -0.0590   -3.7050 C   0  0  0  0  0  0  0  0  0  0  0  0
   -7.2110   -0.3320   -4.6710 O   0  0  0  0  0  0  0  0  0  0  0  0
   -4.2470   -0.2280   -2.6390 C   0  0  0  0  0  0  0  0  0  0  0  0
   -4.5420    0.4720   -4.8620 O   0  0  0  0  0  0  0  0  0  0  0  0
   -5.3280    0.2430   -6.0000 C   0  0  0  0  0  0  0  0  0  0  0  0
   -6.7750    0.5490   -5.6700 C   0  0  0  0  0  0  0  0  0  0  0  0
   -2.4680   -1.3840    1.9680 O   0  0  0  0  0  0  0  0  0  0  0  0
   -1.8880   -1.4970    2.7320 H   0  0  0  0  0  0  0  0  0  0  0  0
  1  2  2  0  0  0  0
  1  3  1  0  0  0  0
  2 29  1  0  0  0  0
  3  4  2  0  0  0  0
  5  3  1  0  0  0  0
  5  6  2  0  0  0  0
  7  6  1  0  0  0  0
  7  8  2  0  0  0  0
  9  8  1  0  0  0  0
  9 11  1  0  0  0  0
 10  9  2  0  0  0  0
 12 14  2  0  0  0  0
 12 10  1  0  0  0  0
 13 10  1  0  0  0  0
 13 15  1  0  0  0  0
 14  7  1  0  0  0  0
 15 16  1  0  0  0  0
 16 11  1  0  0  0  0
 17  2  1  0  0  0  0
 18 17  2  0  0  0  0
 19 20  1  0  0  0  0
 19 18  1  0  0  0  0
 21 20  2  0  0  0  0
 22 21  1  0  0  0  0
 23 22  2  0  0  0  0
 23 25  1  0  0  0  0
 24 22  1  0  0  0  0
 25 19  2  0  0  0  0
 26 23  1  0  0  0  0
 27 28  1  0  0  0  0
 27 26  1  0  0  0  0
 28 24  1  0  0  0  0
 29 30  1  0  0  0  0
M  END
