pdbs/ncv3p.pdb
 OpenBabel07211515353D

 30 32  0  0  0  0  0  0  0  0999 V2000
   -1.3300    1.8360   -0.4320 C   0  0  0  0  0  0  0  0  0  0  0  0
   -0.9310    0.5800   -0.1430 C   0  0  0  0  0  0  0  0  0  0  0  0
   -1.8000   -0.4000    0.1850 C   0  0  0  0  0  0  0  0  0  0  0  0
   -2.6580    2.0410   -0.3670 C   0  0  0  0  0  0  0  0  0  0  0  0
   -3.0420   -0.1490    0.2300 N   0  0  0  0  0  0  0  0  0  0  0  0
   -3.4550    1.0160   -0.0330 C   0  0  0  0  0  0  0  0  0  0  0  0
   -0.4150    2.7760   -0.7560 C   0  0  0  0  0  0  0  0  0  0  0  0
   -0.6410    4.0660   -1.0730 C   0  0  0  0  0  0  0  0  0  0  0  0
    0.2700    5.0090   -1.4000 C   0  0  0  0  0  0  0  0  0  0  0  0
   -0.1440    6.2580   -1.6940 C   0  0  0  0  0  0  0  0  0  0  0  0
    0.6580    7.2900   -2.0310 C   0  0  0  0  0  0  0  0  0  0  0  0
    1.9860    7.0390   -2.0950 C   0  0  0  0  0  0  0  0  0  0  0  0
    2.4230    5.8030   -1.8020 C   0  0  0  0  0  0  0  0  0  0  0  0
    1.5970    4.8050   -1.4610 C   0  0  0  0  0  0  0  0  0  0  0  0
    0.0340    8.4870   -2.3070 O   0  0  0  0  0  0  0  0  0  0  0  0
    0.7450    9.5620   -2.8700 C   0  0  0  0  0  0  0  0  0  0  0  0
    2.9160    7.9750   -2.4260 O   0  0  0  0  0  0  0  0  0  0  0  0
    3.8030    7.5840   -2.3830 H   0  0  0  0  0  0  0  0  0  0  0  0
   -1.3430   -1.6420    0.4630 C   0  0  0  0  0  0  0  0  0  0  0  0
   -2.1070   -2.7000    0.8010 C   0  0  0  0  0  0  0  0  0  0  0  0
   -1.6990   -3.9560    1.0850 C   0  0  0  0  0  0  0  0  0  0  0  0
   -2.6120   -4.8950    1.4030 C   0  0  0  0  0  0  0  0  0  0  0  0
   -2.3380   -6.1810    1.7080 C   0  0  0  0  0  0  0  0  0  0  0  0
   -1.0370   -6.5540    1.6820 C   0  0  0  0  0  0  0  0  0  0  0  0
   -0.1090   -5.6340    1.3690 C   0  0  0  0  0  0  0  0  0  0  0  0
   -0.4180   -4.3640    1.0750 C   0  0  0  0  0  0  0  0  0  0  0  0
   -3.4190   -6.9840    2.0020 O   0  0  0  0  0  0  0  0  0  0  0  0
   -3.2560   -8.3570    2.2610 C   0  0  0  0  0  0  0  0  0  0  0  0
   -0.6060   -7.8140    1.9620 O   0  0  0  0  0  0  0  0  0  0  0  0
    0.3620   -7.8510    1.8920 H   0  0  0  0  0  0  0  0  0  0  0  0
  1  4  2  0  0  0  0
  1  2  1  0  0  0  0
  2  3  2  0  0  0  0
  3  5  1  0  0  0  0
  3 19  1  0  0  0  0
  4  6  1  0  0  0  0
  6  5  2  0  0  0  0
  7  1  1  0  0  0  0
  8  7  2  0  0  0  0
  9  8  1  0  0  0  0
 10  9  2  0  0  0  0
 11 10  1  0  0  0  0
 12 11  2  0  0  0  0
 12 13  1  0  0  0  0
 13 14  2  0  0  0  0
 14  9  1  0  0  0  0
 15 11  1  0  0  0  0
 16 15  1  0  0  0  0
 17 18  1  0  0  0  0
 17 12  1  0  0  0  0
 19 20  2  0  0  0  0
 20 21  1  0  0  0  0
 21 22  1  0  0  0  0
 22 23  2  0  0  0  0
 23 27  1  0  0  0  0
 24 23  1  0  0  0  0
 24 29  1  0  0  0  0
 25 24  2  0  0  0  0
 26 21  2  0  0  0  0
 26 25  1  0  0  0  0
 27 28  1  0  0  0  0
 30 29  1  0  0  0  0
M  END
