pdbs/ncv3dh.pdb
 OpenBabel07211515353D

 28 29  0  0  0  0  0  0  0  0999 V2000
    1.5450   -0.3090    0.0850 C   0  0  0  0  0  0  0  0  0  0  0  0
    2.0040   -1.3970    0.3760 O   0  0  0  0  0  0  0  0  0  0  0  0
    2.3440    0.7630   -0.1990 C   0  0  0  0  0  0  0  0  0  0  0  0
    3.6910    0.7260   -0.1870 C   0  0  0  0  0  0  0  0  0  0  0  0
    4.5490    1.7360   -0.4550 C   0  0  0  0  0  0  0  0  0  0  0  0
    5.8780    1.5080   -0.3920 C   0  0  0  0  0  0  0  0  0  0  0  0
    6.8220    2.4420   -0.6390 C   0  0  0  0  0  0  0  0  0  0  0  0
    6.3980    3.6800   -0.9700 C   0  0  0  0  0  0  0  0  0  0  0  0
    5.0820    3.9310   -1.0390 C   0  0  0  0  0  0  0  0  0  0  0  0
    4.1700    2.9820   -0.7880 C   0  0  0  0  0  0  0  0  0  0  0  0
    8.1800    2.2260   -0.5800 O   0  0  0  0  0  0  0  0  0  0  0  0
    8.6620    0.9470   -0.2380 C   0  0  0  0  0  0  0  0  0  0  0  0
    7.2890    4.6760   -1.2340 O   0  0  0  0  0  0  0  0  0  0  0  0
    6.8010    5.4870   -1.4510 H   0  0  0  0  0  0  0  0  0  0  0  0
    0.1970   -0.0940    0.0260 C   0  0  0  0  0  0  0  0  0  0  0  0
   -0.7290   -1.0390    0.2760 C   0  0  0  0  0  0  0  0  0  0  0  0
   -2.0530   -0.7990    0.2100 C   0  0  0  0  0  0  0  0  0  0  0  0
   -2.9800   -1.7430    0.4600 C   0  0  0  0  0  0  0  0  0  0  0  0
   -4.3230   -1.6110    0.4220 C   0  0  0  0  0  0  0  0  0  0  0  0
   -5.1040   -2.6720    0.7040 C   0  0  0  0  0  0  0  0  0  0  0  0
   -6.4540   -2.6710    0.7010 C   0  0  0  0  0  0  0  0  0  0  0  0
   -7.0660   -1.5050    0.3900 C   0  0  0  0  0  0  0  0  0  0  0  0
   -6.3060   -0.4330    0.1050 C   0  0  0  0  0  0  0  0  0  0  0  0
   -4.9670   -0.4720    0.1180 C   0  0  0  0  0  0  0  0  0  0  0  0
   -7.0670   -3.8630    1.0180 O   0  0  0  0  0  0  0  0  0  0  0  0
   -8.4690   -3.9760    1.0460 C   0  0  0  0  0  0  0  0  0  0  0  0
   -8.4170   -1.3470    0.3460 O   0  0  0  0  0  0  0  0  0  0  0  0
   -8.6320   -0.4330    0.1010 H   0  0  0  0  0  0  0  0  0  0  0  0
  1  2  2  0  0  0  0
  3  4  2  0  0  0  0
  3  1  1  0  0  0  0
  5  6  1  0  0  0  0
  5  4  1  0  0  0  0
  7 11  1  0  0  0  0
  7  6  2  0  0  0  0
  8  7  1  0  0  0  0
  9  8  2  0  0  0  0
  9 10  1  0  0  0  0
 10  5  2  0  0  0  0
 11 12  1  0  0  0  0
 13  8  1  0  0  0  0
 14 13  1  0  0  0  0
 15  1  1  0  0  0  0
 15 16  2  0  0  0  0
 17 16  1  0  0  0  0
 17 18  2  0  0  0  0
 19 18  1  0  0  0  0
 19 20  2  0  0  0  0
 21 20  1  0  0  0  0
 21 25  1  0  0  0  0
 22 21  2  0  0  0  0
 23 24  2  0  0  0  0
 23 22  1  0  0  0  0
 24 19  1  0  0  0  0
 25 26  1  0  0  0  0
 27 22  1  0  0  0  0
 28 27  1  0  0  0  0
M  END
