pdbs/nev3c.pdb
 OpenBabel07211515353D

 33 36  0  0  1  0  0  0  0  0999 V2000
   -3.0470   -3.0330    2.3560 C   0  0  0  0  0  0  0  0  0  0  0  0
   -2.3170   -4.0210    1.8210 C   0  0  0  0  0  0  0  0  0  0  0  0
   -1.2560   -3.7190    1.0560 C   0  0  0  0  0  0  0  0  0  0  0  0
   -0.9090   -2.4370    0.8210 C   0  0  0  0  0  0  0  0  0  0  0  0
   -1.6380   -1.4330    1.3600 C   0  0  0  0  0  0  0  0  0  0  0  0
   -2.7060   -1.7600    2.1130 C   0  0  0  0  0  0  0  0  0  0  0  0
    0.2880   -2.0920   -0.0420 C   0  0  0  0  0  0  0  0  0  0  0  0
    0.7440   -0.6510    0.2090 C   0  0  2  0  0  0  0  0  0  0  0  0
   -0.4890    0.2410    0.1140 C   0  0  2  0  0  0  0  0  0  0  0  0
   -1.3870   -0.1010    1.1420 O   0  0  0  0  0  0  0  0  0  0  0  0
   -1.1210    0.3060   -1.2750 C   0  0  0  0  0  0  0  0  0  0  0  0
   -0.6320    1.1630   -2.1900 C   0  0  0  0  0  0  0  0  0  0  0  0
   -1.1470    1.2590   -3.4270 C   0  0  0  0  0  0  0  0  0  0  0  0
   -2.1900    0.4830   -3.7860 C   0  0  0  0  0  0  0  0  0  0  0  0
   -2.6970   -0.3780   -2.8790 C   0  0  0  0  0  0  0  0  0  0  0  0
   -2.1660   -0.4540   -1.6470 C   0  0  0  0  0  0  0  0  0  0  0  0
   -0.3630   -5.0370    0.3750 C   0  0  0  0  0  0  0  0  0  0  0  0
   -4.4230   -3.3970    3.3340 C   0  0  0  0  0  0  0  0  0  0  0  0
   -0.4170    2.4060   -4.5050 C   0  0  0  0  0  0  0  0  0  0  0  0
   -2.8700    0.5940   -5.3810 C   0  0  0  0  0  0  0  0  0  0  0  0
   -4.0390   -1.4210   -3.2290 C   0  0  0  0  0  0  0  0  0  0  0  0
    1.7030   -0.3340   -0.7480 O   0  0  0  0  0  0  0  0  0  0  0  0
    2.6290    0.6930   -0.7610 C   0  0  0  0  0  0  0  0  0  0  0  0
    3.2900    0.6880   -1.7890 O   0  0  0  0  0  0  0  0  0  0  0  0
    2.9090    1.6820    0.1580 C   0  0  0  0  0  0  0  0  0  0  0  0
    2.2910    1.8370    1.3440 C   0  0  0  0  0  0  0  0  0  0  0  0
    2.5910    2.8180    2.2150 C   0  0  0  0  0  0  0  0  0  0  0  0
    1.6910    2.8740    3.7000 C   0  0  0  0  0  0  0  0  0  0  0  0
    3.5550    3.7130    1.9270 C   0  0  0  0  0  0  0  0  0  0  0  0
    3.9540    4.9860    3.0400 C   0  0  0  0  0  0  0  0  0  0  0  0
    4.1990    3.5890    0.7500 C   0  0  0  0  0  0  0  0  0  0  0  0
    5.4600    4.6850    0.2730 C   0  0  0  0  0  0  0  0  0  0  0  0
    3.8730    2.5970   -0.0970 C   0  0  0  0  0  0  0  0  0  0  0  0
  1 18  1  0  0  0  0
  2  1  2  0  0  0  0
  3  2  1  0  0  0  0
  4  3  2  0  0  0  0
  4  5  1  0  0  0  0
  5  6  2  0  0  0  0
  6  1  1  0  0  0  0
  7  8  1  0  0  0  0
  7  4  1  0  0  0  0
  8 22  1  6  0  0  0
  9 11  1  6  0  0  0
  9  8  1  0  0  0  0
  9 10  1  0  0  0  0
 10  5  1  0  0  0  0
 12 11  2  0  0  0  0
 13 12  1  0  0  0  0
 14 13  2  0  0  0  0
 14 15  1  0  0  0  0
 15 16  2  0  0  0  0
 16 11  1  0  0  0  0
 17  3  1  0  0  0  0
 19 13  1  0  0  0  0
 20 14  1  0  0  0  0
 21 15  1  0  0  0  0
 23 22  1  0  0  0  0
 23 25  1  0  0  0  0
 24 23  2  0  0  0  0
 25 26  1  0  0  0  0
 26 27  2  0  0  0  0
 27 28  1  0  0  0  0
 29 27  1  0  0  0  0
 29 30  1  0  0  0  0
 31 29  2  0  0  0  0
 32 31  1  0  0  0  0
 33 25  2  0  0  0  0
 33 31  1  0  0  0  0
M  END
