pdbs/nev4al.pdb
 OpenBabel07211515353D

 40 43  0  0  1  0  0  0  0  0999 V2000
   -3.6340   -1.6330    4.1950 C   0  0  0  0  0  0  0  0  0  0  0  0
   -3.1210   -2.7820    3.7340 C   0  0  0  0  0  0  0  0  0  0  0  0
   -2.1200   -2.8120    2.8400 C   0  0  0  0  0  0  0  0  0  0  0  0
   -1.6130   -1.6460    2.3920 C   0  0  0  0  0  0  0  0  0  0  0  0
   -2.0930   -0.4640    2.8340 C   0  0  0  0  0  0  0  0  0  0  0  0
   -3.1060   -0.4950    3.7200 C   0  0  0  0  0  0  0  0  0  0  0  0
   -0.4870   -1.6610    1.3820 C   0  0  0  0  0  0  0  0  0  0  0  0
    0.2170   -0.2990    1.3120 C   0  0  2  0  0  0  0  0  0  0  0  0
   -0.8520    0.7950    1.2340 C   0  0  2  0  0  0  0  0  0  0  0  0
   -1.6530    0.7580    2.3920 O   0  0  0  0  0  0  0  0  0  0  0  0
   -1.6600    0.8180   -0.0600 C   0  0  0  0  0  0  0  0  0  0  0  0
   -1.2370    1.5430   -1.1120 C   0  0  0  0  0  0  0  0  0  0  0  0
   -1.9070    1.5900   -2.2740 C   0  0  0  0  0  0  0  0  0  0  0  0
   -3.0520    0.8970   -2.3960 C   0  0  0  0  0  0  0  0  0  0  0  0
   -3.5110    0.1700   -1.3640 C   0  0  0  0  0  0  0  0  0  0  0  0
   -2.8130    0.1440   -0.2170 C   0  0  0  0  0  0  0  0  0  0  0  0
    1.2610   -0.2820    0.1750 C   0  0  0  0  0  0  0  0  0  0  0  0
    2.2250    0.9140    0.2380 C   0  0  0  0  0  0  0  0  0  0  0  0
    3.2960    0.9970   -0.8340 C   0  0  0  0  0  0  0  0  0  0  0  0
    4.2240    1.9670   -0.7530 C   0  0  0  0  0  0  0  0  0  0  0  0
    5.1980    2.1060   -1.6660 C   0  0  0  0  0  0  0  0  0  0  0  0
    5.2500    1.2480   -2.6990 C   0  0  0  0  0  0  0  0  0  0  0  0
    4.3370    0.2670   -2.8090 C   0  0  0  0  0  0  0  0  0  0  0  0
    3.3750    0.1560   -1.8790 C   0  0  0  0  0  0  0  0  0  0  0  0
    6.1290    3.0940   -1.5710 O   0  0  0  0  0  0  0  0  0  0  0  0
    6.7290    3.0190   -2.3320 H   0  0  0  0  0  0  0  0  0  0  0  0
    6.2230    1.3670   -3.6400 O   0  0  0  0  0  0  0  0  0  0  0  0
    6.0990    0.6740   -4.3090 H   0  0  0  0  0  0  0  0  0  0  0  0
    4.3960   -0.5940   -3.8600 O   0  0  0  0  0  0  0  0  0  0  0  0
    3.6570   -1.2210   -3.8130 H   0  0  0  0  0  0  0  0  0  0  0  0
   -1.6520   -4.0110    2.3950 O   0  0  0  0  0  0  0  0  0  0  0  0
   -0.9760   -3.8720    1.7130 H   0  0  0  0  0  0  0  0  0  0  0  0
   -1.4570    2.3260   -3.3260 O   0  0  0  0  0  0  0  0  0  0  0  0
   -2.0960    2.2400   -4.0530 H   0  0  0  0  0  0  0  0  0  0  0  0
   -4.6730   -0.5240   -1.4880 O   0  0  0  0  0  0  0  0  0  0  0  0
   -4.8880   -0.9580   -0.6480 H   0  0  0  0  0  0  0  0  0  0  0  0
   -4.6550   -1.6290    5.0920 O   0  0  0  0  0  0  0  0  0  0  0  0
   -4.8920   -2.5470    5.3050 H   0  0  0  0  0  0  0  0  0  0  0  0
   -3.7540    0.9310   -3.5590 O   0  0  0  0  0  0  0  0  0  0  0  0
   -4.5560    0.3920   -3.4560 H   0  0  0  0  0  0  0  0  0  0  0  0
  1 37  1  0  0  0  0
  2  1  1  0  0  0  0
  3  2  2  0  0  0  0
  4  5  2  0  0  0  0
  4  3  1  0  0  0  0
  5  6  1  0  0  0  0
  6  1  2  0  0  0  0
  7  4  1  0  0  0  0
  8 17  1  6  0  0  0
  8  7  1  0  0  0  0
  9 11  1  6  0  0  0
  9  8  1  0  0  0  0
  9 10  1  0  0  0  0
 10  5  1  0  0  0  0
 12 11  2  0  0  0  0
 13 12  1  0  0  0  0
 14 13  2  0  0  0  0
 14 15  1  0  0  0  0
 15 16  2  0  0  0  0
 16 11  1  0  0  0  0
 17 18  1  0  0  0  0
 19 20  1  0  0  0  0
 19 18  1  0  0  0  0
 21 25  1  0  0  0  0
 21 20  2  0  0  0  0
 22 21  1  0  0  0  0
 23 22  2  0  0  0  0
 23 24  1  0  0  0  0
 24 19  2  0  0  0  0
 26 25  1  0  0  0  0
 27 22  1  0  0  0  0
 28 27  1  0  0  0  0
 29 30  1  0  0  0  0
 29 23  1  0  0  0  0
 31  3  1  0  0  0  0
 32 31  1  0  0  0  0
 33 13  1  0  0  0  0
 34 33  1  0  0  0  0
 35 15  1  0  0  0  0
 35 36  1  0  0  0  0
 37 38  1  0  0  0  0
 39 40  1  0  0  0  0
 39 14  1  0  0  0  0
M  END
