pdbs/nev7a.pdb
 OpenBabel07211515353D

 29 30  0  0  0  0  0  0  0  0999 V2000
    0.9080    2.0980   -0.1620 O   0  0  0  0  0  0  0  0  0  0  0  0
   -0.0450    1.0780   -0.1530 C   0  0  0  0  0  0  0  0  0  0  0  0
   -1.4370    1.7130   -0.2220 C   0  0  0  0  0  0  0  0  0  0  0  0
   -2.6150    0.7580   -0.1790 C   0  0  0  0  0  0  0  0  0  0  0  0
   -2.4840   -0.5790   -0.1420 C   0  0  0  0  0  0  0  0  0  0  0  0
   -3.5490   -1.3960   -0.1010 C   0  0  0  0  0  0  0  0  0  0  0  0
   -4.7840   -0.8650   -0.0970 C   0  0  0  0  0  0  0  0  0  0  0  0
   -4.9470    0.4680   -0.1330 C   0  0  0  0  0  0  0  0  0  0  0  0
   -3.8620    1.2580   -0.1740 C   0  0  0  0  0  0  0  0  0  0  0  0
   -3.4050   -2.7490   -0.0630 O   0  0  0  0  0  0  0  0  0  0  0  0
   -4.2890   -3.1500   -0.0360 H   0  0  0  0  0  0  0  0  0  0  0  0
   -5.8760   -1.6730   -0.0560 O   0  0  0  0  0  0  0  0  0  0  0  0
   -6.6750   -1.1210   -0.0590 H   0  0  0  0  0  0  0  0  0  0  0  0
   -6.1990    0.9990   -0.1280 O   0  0  0  0  0  0  0  0  0  0  0  0
   -6.1470    1.9670   -0.1570 H   0  0  0  0  0  0  0  0  0  0  0  0
    2.2710    1.9520    0.0040 C   0  0  0  0  0  0  0  0  0  0  0  0
    2.8520    3.0270    0.0210 O   0  0  0  0  0  0  0  0  0  0  0  0
    3.0330    0.8120    0.1440 C   0  0  0  0  0  0  0  0  0  0  0  0
    4.3690    0.9100    0.3260 C   0  0  0  0  0  0  0  0  0  0  0  0
    5.1800   -0.1510    0.4730 C   0  0  0  0  0  0  0  0  0  0  0  0
    4.6560   -1.3860    0.4360 C   0  0  0  0  0  0  0  0  0  0  0  0
    3.3360   -1.5370    0.2530 C   0  0  0  0  0  0  0  0  0  0  0  0
    2.5600   -0.4490    0.1120 C   0  0  0  0  0  0  0  0  0  0  0  0
    6.5210   -0.0070    0.6590 O   0  0  0  0  0  0  0  0  0  0  0  0
    6.9150   -0.8910    0.7410 H   0  0  0  0  0  0  0  0  0  0  0  0
    5.4500   -2.4790    0.5790 O   0  0  0  0  0  0  0  0  0  0  0  0
    4.9000   -3.2780    0.5200 H   0  0  0  0  0  0  0  0  0  0  0  0
    2.8070   -2.7900    0.2090 O   0  0  0  0  0  0  0  0  0  0  0  0
    1.8490   -2.7460    0.0670 H   0  0  0  0  0  0  0  0  0  0  0  0
  1  2  1  0  0  0  0
  1 16  1  0  0  0  0
  3  4  1  0  0  0  0
  3  2  1  0  0  0  0
  4  9  2  0  0  0  0
  4  5  1  0  0  0  0
  5  6  2  0  0  0  0
  6  7  1  0  0  0  0
  6 10  1  0  0  0  0
  7 12  1  0  0  0  0
  8 14  1  0  0  0  0
  8  7  2  0  0  0  0
  9  8  1  0  0  0  0
 10 11  1  0  0  0  0
 13 12  1  0  0  0  0
 15 14  1  0  0  0  0
 16 17  2  0  0  0  0
 16 18  1  0  0  0  0
 18 19  1  0  0  0  0
 19 20  2  0  0  0  0
 20 24  1  0  0  0  0
 21 20  1  0  0  0  0
 21 26  1  0  0  0  0
 22 21  2  0  0  0  0
 23 18  2  0  0  0  0
 23 22  1  0  0  0  0
 24 25  1  0  0  0  0
 27 26  1  0  0  0  0
 28 22  1  0  0  0  0
 29 28  1  0  0  0  0
M  END
