pdbs/nev7c.pdb
 OpenBabel07211515353D

 28 30  0  0  1  0  0  0  0  0999 V2000
   -1.7440   -1.1320    3.3560 C   0  0  0  0  0  0  0  0  0  0  0  0
   -1.2910   -2.3070    2.8980 C   0  0  0  0  0  0  0  0  0  0  0  0
   -0.2810   -2.3900    2.0170 C   0  0  0  0  0  0  0  0  0  0  0  0
    0.2960   -1.2520    1.5800 C   0  0  0  0  0  0  0  0  0  0  0  0
   -0.1220   -0.0460    2.0200 C   0  0  0  0  0  0  0  0  0  0  0  0
   -1.1460   -0.0240    2.8940 C   0  0  0  0  0  0  0  0  0  0  0  0
    1.4280   -1.3320    0.5820 C   0  0  0  0  0  0  0  0  0  0  0  0
    2.1930   -0.0180    0.5190 C   0  0  2  0  0  0  0  0  0  0  0  0
    1.2350    1.1570    0.4690 C   0  0  2  0  0  0  0  0  0  0  0  0
    0.3940    1.1530    1.5960 O   0  0  0  0  0  0  0  0  0  0  0  0
    0.5040    1.2610   -0.8620 C   0  0  0  0  0  0  0  0  0  0  0  0
    1.0630    1.9310   -1.8850 C   0  0  0  0  0  0  0  0  0  0  0  0
    0.4630    2.0420   -3.0810 C   0  0  0  0  0  0  0  0  0  0  0  0
   -0.7380    1.4680   -3.2650 C   0  0  0  0  0  0  0  0  0  0  0  0
   -1.3260    0.7960   -2.2610 C   0  0  0  0  0  0  0  0  0  0  0  0
   -0.6990    0.7040   -1.0780 C   0  0  0  0  0  0  0  0  0  0  0  0
    3.0150   -0.0160   -0.6250 O   0  0  0  0  0  0  0  0  0  0  0  0
    3.0690    0.8730   -0.9830 H   0  0  0  0  0  0  0  0  0  0  0  0
    1.0430    2.7200   -4.1080 O   0  0  0  0  0  0  0  0  0  0  0  0
    0.4480    2.6790   -4.8750 H   0  0  0  0  0  0  0  0  0  0  0  0
   -2.5430    0.2220   -2.4520 O   0  0  0  0  0  0  0  0  0  0  0  0
   -2.8380   -0.2060   -1.6320 H   0  0  0  0  0  0  0  0  0  0  0  0
    0.1240   -3.6110    1.5710 O   0  0  0  0  0  0  0  0  0  0  0  0
    0.8160   -3.5080    0.8990 H   0  0  0  0  0  0  0  0  0  0  0  0
   -1.3680    1.5670   -4.4650 O   0  0  0  0  0  0  0  0  0  0  0  0
   -2.2180    1.1010   -4.4130 H   0  0  0  0  0  0  0  0  0  0  0  0
   -2.7740   -1.0740    4.2420 O   0  0  0  0  0  0  0  0  0  0  0  0
   -3.0660   -1.9770    4.4470 H   0  0  0  0  0  0  0  0  0  0  0  0
  1 27  1  0  0  0  0
  2  1  2  0  0  0  0
  3  2  1  0  0  0  0
  4  3  2  0  0  0  0
  4  5  1  0  0  0  0
  5  6  2  0  0  0  0
  6  1  1  0  0  0  0
  7  4  1  0  0  0  0
  8 17  1  6  0  0  0
  8  7  1  0  0  0  0
  9 11  1  6  0  0  0
  9  8  1  0  0  0  0
  9 10  1  0  0  0  0
 10  5  1  0  0  0  0
 12 11  2  0  0  0  0
 13 12  1  0  0  0  0
 14 13  2  0  0  0  0
 14 15  1  0  0  0  0
 15 16  2  0  0  0  0
 16 11  1  0  0  0  0
 18 17  1  0  0  0  0
 19 13  1  0  0  0  0
 20 19  1  0  0  0  0
 21 15  1  0  0  0  0
 21 22  1  0  0  0  0
 23  3  1  0  0  0  0
 24 23  1  0  0  0  0
 25 26  1  0  0  0  0
 25 14  1  0  0  0  0
 27 28  1  0  0  0  0
M  END
