pdbs/nev8sr.pdb
 OpenBabel07211515353D

 41 44  0  0  1  0  0  0  0  0999 V2000
   -5.1510   -2.7300   -1.0370 C   0  0  0  0  0  0  0  0  0  0  0  0
   -4.5460   -3.9150   -0.8620 C   0  0  0  0  0  0  0  0  0  0  0  0
   -3.2120   -4.0310   -0.7610 C   0  0  0  0  0  0  0  0  0  0  0  0
   -2.4520   -2.9160   -0.8360 C   0  0  0  0  0  0  0  0  0  0  0  0
   -3.0200   -1.7030   -1.0200 C   0  0  0  0  0  0  0  0  0  0  0  0
   -4.3600   -1.6500   -1.1170 C   0  0  0  0  0  0  0  0  0  0  0  0
   -0.9460   -3.0060   -0.6520 C   0  0  0  0  0  0  0  0  0  0  0  0
   -0.4540   -1.6570   -0.1390 C   0  0  2  0  0  0  0  0  0  0  0  0
   -0.9180   -0.5810   -1.1260 C   0  0  1  0  0  0  0  0  0  0  0  0
   -2.3240   -0.5200   -1.0980 O   0  0  0  0  0  0  0  0  0  0  0  0
   -0.3580    0.8220   -0.9000 C   0  0  0  0  0  0  0  0  0  0  0  0
    0.1070    1.5450   -1.9350 C   0  0  0  0  0  0  0  0  0  0  0  0
    0.7460    2.7140   -1.7640 C   0  0  0  0  0  0  0  0  0  0  0  0
    0.9180    3.1790   -0.5150 C   0  0  0  0  0  0  0  0  0  0  0  0
    0.4170    2.5100    0.5360 C   0  0  0  0  0  0  0  0  0  0  0  0
   -0.2200    1.3450    0.3310 C   0  0  0  0  0  0  0  0  0  0  0  0
    0.8960   -1.7040    0.2530 O   0  0  0  0  0  0  0  0  0  0  0  0
    1.8010   -0.8270   -0.2900 C   0  0  0  0  0  0  0  0  0  0  0  0
    1.9430   -0.8360   -1.4980 O   0  0  0  0  0  0  0  0  0  0  0  0
    2.4300    0.0980    0.5020 C   0  0  0  0  0  0  0  0  0  0  0  0
    3.1970    1.0790   -0.0140 C   0  0  0  0  0  0  0  0  0  0  0  0
    3.6630    2.0810    0.7490 C   0  0  0  0  0  0  0  0  0  0  0  0
    3.3880    2.0980    2.0640 C   0  0  0  0  0  0  0  0  0  0  0  0
    2.6820    1.1010    2.6170 C   0  0  0  0  0  0  0  0  0  0  0  0
    2.2110    0.1210    1.8310 C   0  0  0  0  0  0  0  0  0  0  0  0
    4.3380    3.1290    0.2100 O   0  0  0  0  0  0  0  0  0  0  0  0
    4.4770    3.7960    0.9030 H   0  0  0  0  0  0  0  0  0  0  0  0
    3.7890    3.1420    2.8320 O   0  0  0  0  0  0  0  0  0  0  0  0
    3.4020    3.0460    3.7180 H   0  0  0  0  0  0  0  0  0  0  0  0
    2.3760    1.1430    3.9390 O   0  0  0  0  0  0  0  0  0  0  0  0
    1.8480    0.3690    4.1890 H   0  0  0  0  0  0  0  0  0  0  0  0
   -2.6520   -5.2590   -0.5820 O   0  0  0  0  0  0  0  0  0  0  0  0
   -1.6870   -5.1960   -0.6530 H   0  0  0  0  0  0  0  0  0  0  0  0
    1.2930    3.3900   -2.8090 O   0  0  0  0  0  0  0  0  0  0  0  0
    1.8320    4.1150   -2.4510 H   0  0  0  0  0  0  0  0  0  0  0  0
    0.6650    2.9710    1.7910 O   0  0  0  0  0  0  0  0  0  0  0  0
    0.7370    2.2170    2.4010 H   0  0  0  0  0  0  0  0  0  0  0  0
   -6.5050   -2.6240   -1.1170 O   0  0  0  0  0  0  0  0  0  0  0  0
   -6.9090   -3.5000   -1.0130 H   0  0  0  0  0  0  0  0  0  0  0  0
    1.6730    4.2880   -0.2880 O   0  0  0  0  0  0  0  0  0  0  0  0
    2.1420    4.1300    0.5540 H   0  0  0  0  0  0  0  0  0  0  0  0
  1  2  1  0  0  0  0
  2  3  2  0  0  0  0
  3 32  1  0  0  0  0
  4  3  1  0  0  0  0
  4  7  1  0  0  0  0
  5  4  2  0  0  0  0
  6  1  2  0  0  0  0
  6  5  1  0  0  0  0
  7  8  1  0  0  0  0
  8 17  1  6  0  0  0
  9 10  1  0  0  0  0
  9 11  1  1  0  0  0
  9  8  1  0  0  0  0
 10  5  1  0  0  0  0
 11 16  2  0  0  0  0
 12 13  2  0  0  0  0
 12 11  1  0  0  0  0
 13 14  1  0  0  0  0
 14 40  1  0  0  0  0
 14 15  2  0  0  0  0
 15 36  1  0  0  0  0
 16 15  1  0  0  0  0
 18 17  1  0  0  0  0
 18 20  1  0  0  0  0
 19 18  2  0  0  0  0
 20 25  1  0  0  0  0
 21 20  2  0  0  0  0
 21 22  1  0  0  0  0
 22 23  2  0  0  0  0
 23 24  1  0  0  0  0
 23 28  1  0  0  0  0
 24 30  1  0  0  0  0
 25 24  2  0  0  0  0
 26 22  1  0  0  0  0
 26 27  1  0  0  0  0
 28 29  1  0  0  0  0
 30 31  1  0  0  0  0
 33 32  1  0  0  0  0
 34 35  1  0  0  0  0
 34 13  1  0  0  0  0
 36 37  1  0  0  0  0
 38  1  1  0  0  0  0
 38 39  1  0  0  0  0
 40 41  1  0  0  0  0
M  END
