pdbs/nev8rs.pdb
 OpenBabel07211515353D

 41 44  0  0  1  0  0  0  0  0999 V2000
   -2.1120   -0.4820    3.0120 C   0  0  0  0  0  0  0  0  0  0  0  0
   -1.4300   -1.6350    3.0280 C   0  0  0  0  0  0  0  0  0  0  0  0
   -0.7010   -2.0490    1.9790 C   0  0  0  0  0  0  0  0  0  0  0  0
   -0.6410   -1.2700    0.8810 C   0  0  0  0  0  0  0  0  0  0  0  0
   -1.2820   -0.0820    0.8360 C   0  0  0  0  0  0  0  0  0  0  0  0
   -2.0160    0.2710    1.9060 C   0  0  0  0  0  0  0  0  0  0  0  0
    0.1660   -1.7190   -0.3190 C   0  0  0  0  0  0  0  0  0  0  0  0
    0.5230   -0.5300   -1.2030 C   0  0  1  0  0  0  0  0  0  0  0  0
   -0.7730    0.2390   -1.4650 C   0  0  2  0  0  0  0  0  0  0  0  0
   -1.2600    0.7570   -0.2500 O   0  0  0  0  0  0  0  0  0  0  0  0
   -1.8050   -0.5610   -2.2540 C   0  0  0  0  0  0  0  0  0  0  0  0
   -1.5550   -0.8850   -3.5350 C   0  0  0  0  0  0  0  0  0  0  0  0
   -2.4210   -1.5910   -4.2800 C   0  0  0  0  0  0  0  0  0  0  0  0
   -3.5820   -1.9860   -3.7310 C   0  0  0  0  0  0  0  0  0  0  0  0
   -3.8660   -1.6750   -2.4550 C   0  0  0  0  0  0  0  0  0  0  0  0
   -2.9780   -0.9680   -1.7380 C   0  0  0  0  0  0  0  0  0  0  0  0
    1.4990    0.3790   -0.7550 O   0  0  0  0  0  0  0  0  0  0  0  0
    2.1400    0.4050    0.4600 C   0  0  0  0  0  0  0  0  0  0  0  0
    2.0370   -0.5120    1.2480 O   0  0  0  0  0  0  0  0  0  0  0  0
    2.8920    1.4980    0.8050 C   0  0  0  0  0  0  0  0  0  0  0  0
    3.0200    2.5300   -0.0500 C   0  0  0  0  0  0  0  0  0  0  0  0
    3.7510    3.6160    0.2520 C   0  0  0  0  0  0  0  0  0  0  0  0
    4.3710    3.6790    1.4410 C   0  0  0  0  0  0  0  0  0  0  0  0
    4.2610    2.6660    2.3160 C   0  0  0  0  0  0  0  0  0  0  0  0
    3.5260    1.5900    1.9890 C   0  0  0  0  0  0  0  0  0  0  0  0
    3.8770    4.6520   -0.6210 O   0  0  0  0  0  0  0  0  0  0  0  0
    4.4400    5.3310   -0.2120 H   0  0  0  0  0  0  0  0  0  0  0  0
    5.1150    4.7690    1.7680 O   0  0  0  0  0  0  0  0  0  0  0  0
    5.4830    4.6450    2.6580 H   0  0  0  0  0  0  0  0  0  0  0  0
    4.8920    2.7410    3.5180 O   0  0  0  0  0  0  0  0  0  0  0  0
    4.7120    1.9420    4.0380 H   0  0  0  0  0  0  0  0  0  0  0  0
   -0.0030   -3.2140    2.0560 O   0  0  0  0  0  0  0  0  0  0  0  0
    0.7670   -3.1510    1.4690 H   0  0  0  0  0  0  0  0  0  0  0  0
   -2.1500   -1.9120   -5.5740 O   0  0  0  0  0  0  0  0  0  0  0  0
   -2.9040   -2.4130   -5.9270 H   0  0  0  0  0  0  0  0  0  0  0  0
   -5.0430   -2.0750   -1.9070 O   0  0  0  0  0  0  0  0  0  0  0  0
   -5.1030   -1.7640   -0.9900 H   0  0  0  0  0  0  0  0  0  0  0  0
   -2.8530   -0.0910    4.0830 O   0  0  0  0  0  0  0  0  0  0  0  0
   -2.7660   -0.7550    4.7870 H   0  0  0  0  0  0  0  0  0  0  0  0
   -4.4770   -2.7010   -4.4620 O   0  0  0  0  0  0  0  0  0  0  0  0
   -5.2530   -2.8900   -3.9100 H   0  0  0  0  0  0  0  0  0  0  0  0
  1  2  1  0  0  0  0
  1 38  1  0  0  0  0
  3 32  1  0  0  0  0
  3  2  2  0  0  0  0
  4  3  1  0  0  0  0
  5  4  2  0  0  0  0
  5  6  1  0  0  0  0
  6  1  2  0  0  0  0
  7  4  1  0  0  0  0
  8 17  1  1  0  0  0
  8  7  1  0  0  0  0
  9 11  1  1  0  0  0
  9  8  1  0  0  0  0
  9 10  1  0  0  0  0
 10  5  1  0  0  0  0
 11 16  1  0  0  0  0
 12 11  2  0  0  0  0
 13 14  2  0  0  0  0
 13 12  1  0  0  0  0
 14 15  1  0  0  0  0
 15 36  1  0  0  0  0
 15 16  2  0  0  0  0
 17 18  1  0  0  0  0
 18 20  1  0  0  0  0
 18 19  2  0  0  0  0
 20 25  2  0  0  0  0
 21 22  2  0  0  0  0
 21 20  1  0  0  0  0
 22 23  1  0  0  0  0
 23 28  1  0  0  0  0
 23 24  2  0  0  0  0
 24 30  1  0  0  0  0
 25 24  1  0  0  0  0
 26 27  1  0  0  0  0
 26 22  1  0  0  0  0
 28 29  1  0  0  0  0
 30 31  1  0  0  0  0
 33 32  1  0  0  0  0
 34 13  1  0  0  0  0
 35 34  1  0  0  0  0
 36 37  1  0  0  0  0
 38 39  1  0  0  0  0
 40 41  1  0  0  0  0
 40 14  1  0  0  0  0
M  END
