pdbs/np.pdb
 OpenBabel07211515353D

 15 16  0  0  0  0  0  0  0  0999 V2000
    1.9050   -0.1370    0.0200 C   0  0  0  0  0  0  0  0  0  0  0  0
    1.3530   -1.3570   -0.0030 C   0  0  0  0  0  0  0  0  0  0  0  0
    0.0150   -1.5830   -0.0210 C   0  0  0  0  0  0  0  0  0  0  0  0
   -0.8060   -0.4920   -0.0150 C   0  0  0  0  0  0  0  0  0  0  0  0
   -0.2570    0.7470    0.0070 C   0  0  0  0  0  0  0  0  0  0  0  0
    1.0950    0.9550    0.0250 C   0  0  0  0  0  0  0  0  0  0  0  0
   -2.1570   -0.6360   -0.0320 C   0  0  0  0  0  0  0  0  0  0  0  0
   -2.9210    0.4720   -0.0260 C   0  0  0  0  0  0  0  0  0  0  0  0
   -2.3940    1.6990   -0.0040 C   0  0  0  0  0  0  0  0  0  0  0  0
   -1.0630    1.8280    0.0120 C   0  0  0  0  0  0  0  0  0  0  0  0
   -0.3510   -2.7400   -0.0400 O   0  0  0  0  0  0  0  0  0  0  0  0
    1.5940    2.0650    0.0460 O   0  0  0  0  0  0  0  0  0  0  0  0
    3.4170   -0.0410    0.0380 C   0  0  0  0  0  0  0  0  0  0  0  0
   -2.8380   -1.8200   -0.0550 O   0  0  0  0  0  0  0  0  0  0  0  0
   -2.3000   -2.6190   -0.0640 H   0  0  0  0  0  0  0  0  0  0  0  0
  1  6  1  0  0  0  0
  1 13  1  0  0  0  0
  2  1  2  0  0  0  0
  3  4  1  0  0  0  0
  3  2  1  0  0  0  0
  4  5  2  0  0  0  0
  5 10  1  0  0  0  0
  5  6  1  0  0  0  0
  6 12  2  0  0  0  0
  7  8  2  0  0  0  0
  7  4  1  0  0  0  0
  8  9  1  0  0  0  0
  9 10  2  0  0  0  0
 11  3  2  0  0  0  0
 14  7  1  0  0  0  0
 15 14  1  0  0  0  0
M  END
