pdbs/ns.pdb
 OpenBabel07211515353D

 11 11  0  0  0  0  0  0  0  0999 V2000
    1.2050    0.5330   -0.1370 C   0  0  0  0  0  0  0  0  0  0  0  0
    1.7210   -0.6680    0.1660 C   0  0  0  0  0  0  0  0  0  0  0  0
    0.8980   -1.6900    0.4340 C   0  0  0  0  0  0  0  0  0  0  0  0
   -0.4270   -1.4940    0.3930 C   0  0  0  0  0  0  0  0  0  0  0  0
   -0.9660   -0.2950    0.1010 C   0  0  0  0  0  0  0  0  0  0  0  0
   -0.1280    0.7290   -0.1750 C   0  0  0  0  0  0  0  0  0  0  0  0
   -0.6170    1.9630   -0.4750 C   0  0  0  0  0  0  0  0  0  0  0  0
    0.1610    2.9110   -0.7290 O   0  0  0  0  0  0  0  0  0  0  0  0
   -1.8560    2.1330   -0.4810 O   0  0  0  0  0  0  0  0  0  0  0  0
   -2.3250   -0.1830    0.0540 O   0  0  0  0  0  0  0  0  0  0  0  0
   -2.6470    0.4960   -0.5540 H   0  0  0  0  0  0  0  0  0  0  0  0
  1  2  1  0  0  0  0
  2  3  2  0  0  0  0
  4  3  1  0  0  0  0
  5  4  2  0  0  0  0
  6  1  2  0  0  0  0
  6  5  1  0  0  0  0
  7  6  1  0  0  0  0
  8  7  2  0  0  0  0
  9  7  1  0  0  0  0
 10  5  1  0  0  0  0
 11 10  1  0  0  0  0
M  END
