pdbs/s1.pdb
 OpenBabel07211515353D

 39 40  0  0  0  0  0  0  0  0999 V2000
   -5.7960   -2.7140    0.5450 C   0  0  0  0  0  0  0  0  0  0  0  0
   -6.6290   -3.7860    0.6310 C   0  0  0  0  0  0  0  0  0  0  0  0
   -6.1710   -4.9030    1.2270 C   0  0  0  0  0  0  0  0  0  0  0  0
   -4.9680   -4.9550    1.8050 C   0  0  0  0  0  0  0  0  0  0  0  0
   -4.1780   -3.8790    1.7410 C   0  0  0  0  0  0  0  0  0  0  0  0
   -4.5550   -2.7550    1.1020 C   0  0  0  0  0  0  0  0  0  0  0  0
   -6.2420   -1.5820   -0.0820 C   0  0  0  0  0  0  0  0  0  0  0  0
   -5.8890   -0.4440    0.5840 N   0  0  0  0  0  0  0  0  0  0  0  0
   -5.3980   -0.5710    1.4560 H   0  0  0  0  0  0  0  0  0  0  0  0
   -7.0430   -1.5400   -0.9840 O   0  0  0  0  0  0  0  0  0  0  0  0
   -6.0860    0.8710    0.3530 C   0  0  0  0  0  0  0  0  0  0  0  0
   -6.6550    1.4330   -0.7290 C   0  0  0  0  0  0  0  0  0  0  0  0
   -6.8070    2.7650   -0.8730 C   0  0  0  0  0  0  0  0  0  0  0  0
   -6.3540    3.5550    0.1240 C   0  0  0  0  0  0  0  0  0  0  0  0
   -6.4880    5.2790    0.0590 C   0  0  0  0  0  0  0  0  0  0  0  0
   -5.7720    3.0200    1.2090 C   0  0  0  0  0  0  0  0  0  0  0  0
   -5.6380    1.6910    1.3190 C   0  0  0  0  0  0  0  0  0  0  0  0
   -7.4620    3.3300   -2.1270 C   0  0  0  0  0  0  0  0  0  0  0  0
   -8.5440    4.0260   -1.8110 F   0  0  0  0  0  0  0  0  0  0  0  0
   -7.8330    2.4100   -3.0030 F   0  0  0  0  0  0  0  0  0  0  0  0
   -6.6310    4.1490   -2.7540 F   0  0  0  0  0  0  0  0  0  0  0  0
   -3.5140   -1.6400    0.9760 C   0  0  0  0  0  0  0  0  0  0  0  0
   -2.0340   -2.0660    0.8970 C   0  0  0  0  0  0  0  0  0  0  0  0
   -1.1130   -0.8830    0.5450 C   0  0  0  0  0  0  0  0  0  0  0  0
    0.3670   -1.3000    0.5080 C   0  0  0  0  0  0  0  0  0  0  0  0
    1.2920   -0.1200    0.1680 C   0  0  0  0  0  0  0  0  0  0  0  0
    2.7710   -0.5410    0.1500 C   0  0  0  0  0  0  0  0  0  0  0  0
    3.7040    0.6380   -0.1730 C   0  0  0  0  0  0  0  0  0  0  0  0
    5.1820    0.2130   -0.1730 C   0  0  0  0  0  0  0  0  0  0  0  0
    6.1220    1.3900   -0.4810 C   0  0  0  0  0  0  0  0  0  0  0  0
    7.5990    0.9620   -0.4660 C   0  0  0  0  0  0  0  0  0  0  0  0
    8.5440    2.1390   -0.7630 C   0  0  0  0  0  0  0  0  0  0  0  0
   10.0200    1.7090   -0.7380 C   0  0  0  0  0  0  0  0  0  0  0  0
   10.9670    2.8850   -1.0280 C   0  0  0  0  0  0  0  0  0  0  0  0
   12.4420    2.4560   -1.0000 C   0  0  0  0  0  0  0  0  0  0  0  0
   13.3850    3.6320   -1.2870 C   0  0  0  0  0  0  0  0  0  0  0  0
   -7.8820   -3.8500    0.0660 O   0  0  0  0  0  0  0  0  0  0  0  0
   -8.9070   -3.3470    0.8840 C   0  0  0  0  0  0  0  0  0  0  0  0
  -10.2230   -3.4010    0.1160 C   0  0  0  0  0  0  0  0  0  0  0  0
  1  2  2  0  0  0  0
  1  6  1  0  0  0  0
  2  3  1  0  0  0  0
  3  4  2  0  0  0  0
  5  4  1  0  0  0  0
  6  5  2  0  0  0  0
  7  1  1  0  0  0  0
  7  8  1  0  0  0  0
  8  9  1  0  0  0  0
 10  7  2  0  0  0  0
 11  8  1  0  0  0  0
 11 17  2  0  0  0  0
 12 11  1  0  0  0  0
 13 12  2  0  0  0  0
 13 14  1  0  0  0  0
 14 16  2  0  0  0  0
 15 14  1  0  0  0  0
 16 17  1  0  0  0  0
 18 19  1  0  0  0  0
 18 13  1  0  0  0  0
 20 18  1  0  0  0  0
 21 18  1  0  0  0  0
 22  6  1  0  0  0  0
 23 22  1  0  0  0  0
 24 23  1  0  0  0  0
 25 24  1  0  0  0  0
 26 25  1  0  0  0  0
 27 26  1  0  0  0  0
 28 27  1  0  0  0  0
 29 28  1  0  0  0  0
 30 31  1  0  0  0  0
 30 29  1  0  0  0  0
 32 33  1  0  0  0  0
 32 31  1  0  0  0  0
 34 35  1  0  0  0  0
 34 33  1  0  0  0  0
 36 35  1  0  0  0  0
 37  2  1  0  0  0  0
 37 38  1  0  0  0  0
 39 38  1  0  0  0  0
M  END
