pdbs/s2.pdb
 OpenBabel07211515353D

 24 25  0  0  0  0  0  0  0  0999 V2000
    0.3370   -1.4710    0.4090 C   0  0  0  0  0  0  0  0  0  0  0  0
   -0.3560   -0.5510   -0.3210 N   0  0  0  0  0  0  0  0  0  0  0  0
   -0.2500   -2.3050    1.0560 O   0  0  0  0  0  0  0  0  0  0  0  0
    0.1340   -0.0860   -1.0670 H   0  0  0  0  0  0  0  0  0  0  0  0
   -1.6430   -0.1430   -0.3090 C   0  0  0  0  0  0  0  0  0  0  0  0
   -1.9790    0.7250   -1.2790 C   0  0  0  0  0  0  0  0  0  0  0  0
   -3.2270    1.2030   -1.3680 C   0  0  0  0  0  0  0  0  0  0  0  0
   -4.1620    0.8270   -0.4820 C   0  0  0  0  0  0  0  0  0  0  0  0
   -5.7490    1.4920   -0.6670 C   0  0  0  0  0  0  0  0  0  0  0  0
   -3.8600   -0.0320    0.5150 C   0  0  0  0  0  0  0  0  0  0  0  0
   -2.5940   -0.4930    0.5760 C   0  0  0  0  0  0  0  0  0  0  0  0
   -4.8850   -0.4710    1.5520 C   0  0  0  0  0  0  0  0  0  0  0  0
   -5.9050   -1.0810    0.9660 F   0  0  0  0  0  0  0  0  0  0  0  0
   -4.4070   -1.3020    2.4650 F   0  0  0  0  0  0  0  0  0  0  0  0
   -5.3680    0.5790    2.1990 F   0  0  0  0  0  0  0  0  0  0  0  0
    1.6910   -1.4960    0.2080 C   0  0  0  0  0  0  0  0  0  0  0  0
    2.3280   -2.6660    0.4260 C   0  0  0  0  0  0  0  0  0  0  0  0
    3.6490   -2.7990    0.2430 C   0  0  0  0  0  0  0  0  0  0  0  0
    4.3560   -1.7370   -0.1550 C   0  0  0  0  0  0  0  0  0  0  0  0
    3.7300   -0.5690   -0.3510 C   0  0  0  0  0  0  0  0  0  0  0  0
    2.3980   -0.4060   -0.1940 C   0  0  0  0  0  0  0  0  0  0  0  0
    1.7930    0.8220   -0.3420 O   0  0  0  0  0  0  0  0  0  0  0  0
    2.5600    1.9930   -0.4260 C   0  0  0  0  0  0  0  0  0  0  0  0
    1.6070    3.1870   -0.4360 C   0  0  0  0  0  0  0  0  0  0  0  0
  1  3  2  0  0  0  0
  2  5  1  0  0  0  0
  2  1  1  0  0  0  0
  4  2  1  0  0  0  0
  5 11  2  0  0  0  0
  6  5  1  0  0  0  0
  7  6  2  0  0  0  0
  7  8  1  0  0  0  0
  8 10  2  0  0  0  0
  9  8  1  0  0  0  0
 10 11  1  0  0  0  0
 10 12  1  0  0  0  0
 12 15  1  0  0  0  0
 12 14  1  0  0  0  0
 13 12  1  0  0  0  0
 16  1  1  0  0  0  0
 16 17  2  0  0  0  0
 18 17  1  0  0  0  0
 19 18  2  0  0  0  0
 20 21  2  0  0  0  0
 20 19  1  0  0  0  0
 21 16  1  0  0  0  0
 22 21  1  0  0  0  0
 23 22  1  0  0  0  0
 24 23  1  0  0  0  0
M  END
