pdbs/s3emnr.pdb
 OpenBabel07211515353D

 33 36  0  0  0  0  0  0  0  0999 V2000
    0.3480    1.5970   -2.8740 C   0  0  0  0  0  0  0  0  0  0  0  0
   -0.6370    0.8450   -2.3280 C   0  0  0  0  0  0  0  0  0  0  0  0
   -0.7710    0.2940   -1.1840 O   0  0  0  0  0  0  0  0  0  0  0  0
   -1.8130   -0.4310   -1.3070 C   0  0  0  0  0  0  0  0  0  0  0  0
   -2.6020   -1.0750   -0.4000 C   0  0  0  0  0  0  0  0  0  0  0  0
   -2.2850   -0.3100   -2.5670 C   0  0  0  0  0  0  0  0  0  0  0  0
   -3.8760   -1.4840   -0.6630 C   0  0  0  0  0  0  0  0  0  0  0  0
   -2.2090   -1.4100    0.8480 C   0  0  0  0  0  0  0  0  0  0  0  0
   -4.6320   -2.1750    0.2260 C   0  0  0  0  0  0  0  0  0  0  0  0
   -4.2020   -2.5140    1.4510 C   0  0  0  0  0  0  0  0  0  0  0  0
   -5.1700   -3.2880    2.3420 C   0  0  0  0  0  0  0  0  0  0  0  0
   -2.9560   -2.0980    1.7440 C   0  0  0  0  0  0  0  0  0  0  0  0
   -2.4220   -2.4560    3.1130 C   0  0  0  0  0  0  0  0  0  0  0  0
   -1.5810    0.5830   -3.2370 C   0  0  0  0  0  0  0  0  0  0  0  0
   -4.3970   -1.2700   -1.7870 N   0  0  0  0  0  0  0  0  0  0  0  0
   -4.7720   -2.3610   -2.4740 O   0  0  0  0  0  0  0  0  0  0  0  0
   -5.4390   -0.4380   -1.7840 O   0  0  0  0  0  0  0  0  0  0  0  0
    1.4790    1.7970   -2.2140 C   0  0  0  0  0  0  0  0  0  0  0  0
    1.6300    1.1950   -1.0380 C   0  0  0  0  0  0  0  0  0  0  0  0
    2.8130    1.5720   -0.6780 N   0  0  0  0  0  0  0  0  0  0  0  0
    0.6140    0.3130   -0.6610 O   0  0  0  0  0  0  0  0  0  0  0  0
    3.3150    2.2910   -1.5770 N   0  0  0  0  0  0  0  0  0  0  0  0
    3.5300    1.4160    0.3680 C   0  0  0  0  0  0  0  0  0  0  0  0
    2.5600    2.4850   -2.5480 C   0  0  0  0  0  0  0  0  0  0  0  0
    2.8510    3.2800   -3.7710 C   0  0  0  0  0  0  0  0  0  0  0  0
    3.0660    0.6740    1.3940 C   0  0  0  0  0  0  0  0  0  0  0  0
    4.7420    1.9990    0.5800 C   0  0  0  0  0  0  0  0  0  0  0  0
    3.7870    0.4600    2.5060 C   0  0  0  0  0  0  0  0  0  0  0  0
    5.0060    1.0060    2.6880 C   0  0  0  0  0  0  0  0  0  0  0  0
    5.4650    1.7940    1.6950 C   0  0  0  0  0  0  0  0  0  0  0  0
    5.6920    0.7880    3.8440 C   0  0  0  0  0  0  0  0  0  0  0  0
    5.1920    0.0480    4.7220 O   0  0  0  0  0  0  0  0  0  0  0  0
    6.8290    1.2810    4.0080 O   0  0  0  0  0  0  0  0  0  0  0  0
  1  2  1  0  0  0  0
  1 18  2  0  0  0  0
  2  3  1  0  0  0  0
  4  3  1  0  0  0  0
  4  5  1  0  0  0  0
  5  8  1  0  0  0  0
  6  4  2  0  0  0  0
  7  5  2  0  0  0  0
  7  9  1  0  0  0  0
  8 12  2  0  0  0  0
  9 10  2  0  0  0  0
 10 12  1  0  0  0  0
 10 11  1  0  0  0  0
 12 13  1  0  0  0  0
 14  6  1  0  0  0  0
 14  2  2  0  0  0  0
 15 17  1  0  0  0  0
 15  7  1  0  0  0  0
 16 15  1  0  0  0  0
 18 19  1  0  0  0  0
 19 20  1  0  0  0  0
 19 21  2  0  0  0  0
 20 23  1  0  0  0  0
 22 20  1  0  0  0  0
 23 27  2  0  0  0  0
 23 26  1  0  0  0  0
 24 18  1  0  0  0  0
 24 22  2  0  0  0  0
 25 24  1  0  0  0  0
 26 28  2  0  0  0  0
 27 30  1  0  0  0  0
 28 29  1  0  0  0  0
 29 31  1  0  0  0  0
 30 29  2  0  0  0  0
 31 33  2  0  0  0  0
 31 32  1  0  0  0  0
M  END
