pdbs/s3zca.pdb
 OpenBabel07211515353D

 33 36  0  0  0  0  0  0  0  0999 V2000
   -2.8130   -0.2430   -1.8240 C   0  0  0  0  0  0  0  0  0  0  0  0
   -1.6470   -0.0430   -2.4680 C   0  0  0  0  0  0  0  0  0  0  0  0
   -1.5130   -0.1580   -3.7940 C   0  0  0  0  0  0  0  0  0  0  0  0
   -0.2140    0.0640   -4.0060 C   0  0  0  0  0  0  0  0  0  0  0  0
    0.3390    0.2970   -2.8040 C   0  0  0  0  0  0  0  0  0  0  0  0
    1.6270    0.6000   -2.4810 C   0  0  0  0  0  0  0  0  0  0  0  0
   -0.5560    0.2150   -1.9530 O   0  0  0  0  0  0  0  0  0  0  0  0
    2.6320    0.7540   -3.3720 C   0  0  0  0  0  0  0  0  0  0  0  0
    1.9920    0.7740   -1.1830 C   0  0  0  0  0  0  0  0  0  0  0  0
    3.8730    1.0750   -2.9670 C   0  0  0  0  0  0  0  0  0  0  0  0
    4.2080    1.2440   -1.6820 C   0  0  0  0  0  0  0  0  0  0  0  0
    3.2390    1.0900   -0.7610 C   0  0  0  0  0  0  0  0  0  0  0  0
    5.6530    1.6010   -1.3800 C   0  0  0  0  0  0  0  0  0  0  0  0
    3.5810    1.2750    0.7060 C   0  0  0  0  0  0  0  0  0  0  0  0
    2.6260    0.6600   -4.6220 N   0  0  0  0  0  0  0  0  0  0  0  0
    2.4110   -0.5380   -5.1040 O   0  0  0  0  0  0  0  0  0  0  0  0
    1.9420    1.5680   -5.2700 O   0  0  0  0  0  0  0  0  0  0  0  0
   -3.0710   -0.3220   -0.5040 C   0  0  0  0  0  0  0  0  0  0  0  0
   -2.2350   -0.1090    0.5430 C   0  0  0  0  0  0  0  0  0  0  0  0
   -1.1520    0.4140    0.4640 O   0  0  0  0  0  0  0  0  0  0  0  0
   -2.7580   -0.5460    1.6240 N   0  0  0  0  0  0  0  0  0  0  0  0
   -2.1750   -0.7330    2.7610 C   0  0  0  0  0  0  0  0  0  0  0  0
   -3.9510   -0.7880    1.3610 N   0  0  0  0  0  0  0  0  0  0  0  0
   -2.7800   -1.4520    3.7290 C   0  0  0  0  0  0  0  0  0  0  0  0
   -0.9360   -0.3030    3.0910 C   0  0  0  0  0  0  0  0  0  0  0  0
   -2.1750   -1.7510    4.8920 C   0  0  0  0  0  0  0  0  0  0  0  0
   -0.9430   -1.3060    5.1840 C   0  0  0  0  0  0  0  0  0  0  0  0
   -0.3380   -0.5510    4.2620 C   0  0  0  0  0  0  0  0  0  0  0  0
   -4.2090   -0.6520    0.1260 C   0  0  0  0  0  0  0  0  0  0  0  0
   -5.5940   -0.8270   -0.4040 C   0  0  0  0  0  0  0  0  0  0  0  0
   -0.2960   -1.6060    6.3430 C   0  0  0  0  0  0  0  0  0  0  0  0
   -0.8680   -2.3150    7.1990 O   0  0  0  0  0  0  0  0  0  0  0  0
    0.8500   -1.1440    6.5450 O   0  0  0  0  0  0  0  0  0  0  0  0
  1 18  1  0  0  0  0
  2  7  1  0  0  0  0
  2  1  1  0  0  0  0
  3  2  2  0  0  0  0
  4  3  1  0  0  0  0
  4  5  2  0  0  0  0
  5  6  1  0  0  0  0
  5  7  1  0  0  0  0
  6  9  2  0  0  0  0
  8 10  2  0  0  0  0
  8  6  1  0  0  0  0
  9 12  1  0  0  0  0
 10 11  1  0  0  0  0
 11 13  1  0  0  0  0
 11 12  2  0  0  0  0
 12 14  1  0  0  0  0
 15  8  1  0  0  0  0
 16 15  1  0  0  0  0
 17 15  1  0  0  0  0
 18 29  2  0  0  0  0
 18 19  1  0  0  0  0
 19 21  1  0  0  0  0
 20 19  2  0  0  0  0
 21 22  1  0  0  0  0
 22 25  2  0  0  0  0
 22 24  1  0  0  0  0
 23 21  1  0  0  0  0
 24 26  2  0  0  0  0
 25 28  1  0  0  0  0
 26 27  1  0  0  0  0
 27 31  1  0  0  0  0
 28 27  2  0  0  0  0
 29 23  1  0  0  0  0
 30 29  1  0  0  0  0
 31 33  2  0  0  0  0
 31 32  1  0  0  0  0
M  END
