pdbs/aa10.pdb
 OpenBabel07281513453D

 27 27  0  0  1  0  0  0  0  0999 V2000
    0.8070    1.2630   -0.3090 C   0  0  2  0  0  0  0  0  0  0  0  0
    1.5640   -0.0190    0.0620 C   0  0  1  0  0  0  0  0  0  0  0  0
    0.7820   -1.2420   -0.4260 C   0  0  2  0  0  0  0  0  0  0  0  0
   -0.6320   -1.2020    0.1930 C   0  0  2  0  0  0  0  0  0  0  0  0
   -1.2940    0.0040   -0.2440 O   0  0  0  0  0  0  0  0  0  0  0  0
   -0.6390    1.1990    0.2220 C   0  0  2  0  0  0  0  0  0  0  0  0
   -0.6220   -1.2480    1.6260 O   0  0  0  0  0  0  0  0  0  0  0  0
   -0.4790   -2.5770    2.1190 C   0  0  0  0  0  0  0  0  0  0  0  0
   -0.4990   -2.5490    3.6160 C   0  0  0  0  0  0  0  0  0  0  0  0
    0.3180   -3.3230    4.3530 C   0  0  0  0  0  0  0  0  0  0  0  0
    0.3230   -3.3790    5.8520 C   0  0  0  0  0  0  0  0  0  0  0  0
    0.9560   -4.6870    6.3400 C   0  0  0  0  0  0  0  0  0  0  0  0
    1.0030   -4.7560    7.8640 C   0  0  0  0  0  0  0  0  0  0  0  0
    1.6780   -6.0450    8.3370 C   0  0  0  0  0  0  0  0  0  0  0  0
    1.7090   -6.1180    9.8630 C   0  0  0  0  0  0  0  0  0  0  0  0
    2.3790   -7.4030   10.3490 C   0  0  0  0  0  0  0  0  0  0  0  0
    2.3930   -7.4670   11.8760 C   0  0  0  0  0  0  0  0  0  0  0  0
    3.0550   -8.7410   12.3750 C   0  0  0  0  0  0  0  0  0  0  0  0
    1.5130   -2.4380   -0.1430 O   0  0  0  0  0  0  0  0  0  0  0  0
    2.4540   -2.1980   -0.2700 H   0  0  0  0  0  0  0  0  0  0  0  0
    2.8610   -0.0390   -0.5600 O   0  0  0  0  0  0  0  0  0  0  0  0
    2.7600    0.4800   -1.3860 H   0  0  0  0  0  0  0  0  0  0  0  0
   -1.4780    2.4060   -0.2210 C   0  0  0  0  0  0  0  0  0  0  0  0
   -0.9560    3.6240    0.2940 O   0  0  0  0  0  0  0  0  0  0  0  0
   -1.1800    3.6650    1.2400 H   0  0  0  0  0  0  0  0  0  0  0  0
    0.8550    1.3710   -1.7470 O   0  0  0  0  0  0  0  0  0  0  0  0
    0.0190    1.0140   -2.1030 H   0  0  0  0  0  0  0  0  0  0  0  0
  1 26  1  6  0  0  0
  1  2  1  0  0  0  0
  1  6  1  0  0  0  0
  2 21  1  6  0  0  0
  3 19  1  1  0  0  0
  3  2  1  0  0  0  0
  3  4  1  0  0  0  0
  4  7  1  1  0  0  0
  5  4  1  0  0  0  0
  5  6  1  0  0  0  0
  6 23  1  6  0  0  0
  7  8  1  0  0  0  0
  8  9  1  0  0  0  0
  9 10  2  0  0  0  0
 10 11  1  0  0  0  0
 11 12  1  0  0  0  0
 12 13  1  0  0  0  0
 13 14  1  0  0  0  0
 14 15  1  0  0  0  0
 15 16  1  0  0  0  0
 16 17  1  0  0  0  0
 17 18  1  0  0  0  0
 20 19  1  0  0  0  0
 22 21  1  0  0  0  0
 23 24  1  0  0  0  0
 24 25  1  0  0  0  0
 27 26  1  0  0  0  0
M  END
