pdbs/ab.pdb
 OpenBabel07281513453D

 17 17  0  0  1  0  0  0  0  0999 V2000
    0.7660    1.1970   -0.2580 C   0  0  2  0  0  0  0  0  0  0  0  0
    1.4050   -0.0950    0.2680 C   0  0  1  0  0  0  0  0  0  0  0  0
    0.5950   -1.3190   -0.1690 C   0  0  2  0  0  0  0  0  0  0  0  0
   -0.8950   -1.1270    0.1820 C   0  0  1  0  0  0  0  0  0  0  0  0
   -1.3820    0.0980   -0.3700 O   0  0  0  0  0  0  0  0  0  0  0  0
   -0.7080    1.2400    0.1810 C   0  0  2  0  0  0  0  0  0  0  0  0
   -1.4230    2.5080   -0.2920 C   0  0  0  0  0  0  0  0  0  0  0  0
   -0.8960    3.6570    0.3610 O   0  0  0  0  0  0  0  0  0  0  0  0
   -1.3850    3.7720    1.1950 H   0  0  0  0  0  0  0  0  0  0  0  0
    0.8930    1.1780   -1.6930 O   0  0  0  0  0  0  0  0  0  0  0  0
    0.0530    0.8360   -2.0590 H   0  0  0  0  0  0  0  0  0  0  0  0
    2.7430   -0.2360   -0.2350 O   0  0  0  0  0  0  0  0  0  0  0  0
    2.7400    0.1980   -1.1140 H   0  0  0  0  0  0  0  0  0  0  0  0
   -1.6660   -2.1970   -0.3490 O   0  0  0  0  0  0  0  0  0  0  0  0
   -1.0380   -2.9130   -0.5600 H   0  0  0  0  0  0  0  0  0  0  0  0
    1.1130   -2.5030    0.4510 O   0  0  0  0  0  0  0  0  0  0  0  0
    2.0870   -2.4290    0.3790 H   0  0  0  0  0  0  0  0  0  0  0  0
  1 10  1  6  0  0  0
  1  6  1  0  0  0  0
  1  2  1  0  0  0  0
  2 12  1  6  0  0  0
  3  4  1  0  0  0  0
  3  2  1  0  0  0  0
  3 16  1  1  0  0  0
  4 14  1  6  0  0  0
  5  6  1  0  0  0  0
  5  4  1  0  0  0  0
  6  7  1  6  0  0  0
  7  8  1  0  0  0  0
  8  9  1  0  0  0  0
 11 10  1  0  0  0  0
 13 12  1  0  0  0  0
 15 14  1  0  0  0  0
 17 16  1  0  0  0  0
M  END
