pdbs/ab7.pdb
 OpenBabel07281513453D

 24 24  0  0  1  0  0  0  0  0999 V2000
    0.7360    1.1550   -0.4270 C   0  0  2  0  0  0  0  0  0  0  0  0
    1.6970    0.0860    0.0900 C   0  0  1  0  0  0  0  0  0  0  0  0
    1.0010   -1.2690    0.2810 C   0  0  2  0  0  0  0  0  0  0  0  0
   -0.3200   -1.1070    1.0780 C   0  0  1  0  0  0  0  0  0  0  0  0
   -1.1200   -0.0480    0.5140 O   0  0  0  0  0  0  0  0  0  0  0  0
   -0.4680    1.2250    0.5200 C   0  0  2  0  0  0  0  0  0  0  0  0
   -1.1570   -2.2650    1.0180 O   0  0  0  0  0  0  0  0  0  0  0  0
   -0.6760   -3.4300    1.6720 C   0  0  0  0  0  0  0  0  0  0  0  0
   -0.6970   -3.2830    3.1640 C   0  0  0  0  0  0  0  0  0  0  0  0
    0.3900   -3.4300    3.9390 C   0  0  0  0  0  0  0  0  0  0  0  0
    0.3840   -3.3590    5.4400 C   0  0  0  0  0  0  0  0  0  0  0  0
    0.9270   -4.6570    6.0450 C   0  0  0  0  0  0  0  0  0  0  0  0
    0.9480   -4.6060    7.5740 C   0  0  0  0  0  0  0  0  0  0  0  0
    1.5470   -5.8860    8.1600 C   0  0  0  0  0  0  0  0  0  0  0  0
    1.5660   -5.8530    9.6800 C   0  0  0  0  0  0  0  0  0  0  0  0
    1.9450   -2.1350    0.9370 O   0  0  0  0  0  0  0  0  0  0  0  0
    2.7790   -2.0290    0.4350 H   0  0  0  0  0  0  0  0  0  0  0  0
    2.7880   -0.0940   -0.8290 O   0  0  0  0  0  0  0  0  0  0  0  0
    2.4150    0.0930   -1.7170 H   0  0  0  0  0  0  0  0  0  0  0  0
   -1.4770    2.2930    0.0880 C   0  0  0  0  0  0  0  0  0  0  0  0
   -0.9370    3.5940    0.2890 O   0  0  0  0  0  0  0  0  0  0  0  0
   -1.3640    3.9690    1.0790 H   0  0  0  0  0  0  0  0  0  0  0  0
    0.3480    0.7710   -1.7600 O   0  0  0  0  0  0  0  0  0  0  0  0
   -0.4780    0.2520   -1.6850 H   0  0  0  0  0  0  0  0  0  0  0  0
  1 23  1  1  0  0  0
  1  2  1  0  0  0  0
  1  6  1  0  0  0  0
  2 18  1  6  0  0  0
  2  3  1  0  0  0  0
  3 16  1  1  0  0  0
  3  4  1  0  0  0  0
  4  7  1  6  0  0  0
  5  6  1  0  0  0  0
  5  4  1  0  0  0  0
  6 20  1  6  0  0  0
  7  8  1  0  0  0  0
  8  9  1  0  0  0  0
  9 10  2  0  0  0  0
 10 11  1  0  0  0  0
 11 12  1  0  0  0  0
 12 13  1  0  0  0  0
 13 14  1  0  0  0  0
 14 15  1  0  0  0  0
 17 16  1  0  0  0  0
 19 18  1  0  0  0  0
 20 21  1  0  0  0  0
 21 22  1  0  0  0  0
 23 24  1  0  0  0  0
M  END
