pdbs/abm.pdb
 OpenBabel07281513453D

 17 17  0  0  1  0  0  0  0  0999 V2000
    0.7760    1.1940   -0.3300 C   0  0  2  0  0  0  0  0  0  0  0  0
    1.5330   -0.0080    0.2350 C   0  0  1  0  0  0  0  0  0  0  0  0
    0.7710   -1.3150   -0.0060 C   0  0  2  0  0  0  0  0  0  0  0  0
   -0.7050   -1.1760    0.4240 C   0  0  1  0  0  0  0  0  0  0  0  0
   -1.3150   -0.0010   -0.1280 O   0  0  0  0  0  0  0  0  0  0  0  0
   -0.6430    1.2060    0.2590 C   0  0  2  0  0  0  0  0  0  0  0  0
   -1.4580    2.4070   -0.2330 C   0  0  0  0  0  0  0  0  0  0  0  0
   -0.9420    3.6200    0.3010 O   0  0  0  0  0  0  0  0  0  0  0  0
   -1.3460    3.7530    1.1790 H   0  0  0  0  0  0  0  0  0  0  0  0
    0.7570    1.0580   -1.7640 O   0  0  0  0  0  0  0  0  0  0  0  0
   -0.0630    0.5830   -2.0040 H   0  0  0  0  0  0  0  0  0  0  0  0
    2.8290   -0.1150   -0.3770 O   0  0  0  0  0  0  0  0  0  0  0  0
    2.7130    0.2080   -1.2950 H   0  0  0  0  0  0  0  0  0  0  0  0
   -1.4120   -2.3190   -0.0650 O   0  0  0  0  0  0  0  0  0  0  0  0
   -2.5170   -2.6580    0.7570 C   0  0  0  0  0  0  0  0  0  0  0  0
    1.4280   -2.3590    0.7340 O   0  0  0  0  0  0  0  0  0  0  0  0
    2.3690   -2.3040    0.4770 H   0  0  0  0  0  0  0  0  0  0  0  0
  1 10  1  6  0  0  0
  1  2  1  0  0  0  0
  1  6  1  0  0  0  0
  2 12  1  6  0  0  0
  3  2  1  0  0  0  0
  3  4  1  0  0  0  0
  3 16  1  1  0  0  0
  4 14  1  6  0  0  0
  5  6  1  0  0  0  0
  5  4  1  0  0  0  0
  6  7  1  6  0  0  0
  7  8  1  0  0  0  0
  8  9  1  0  0  0  0
 11 10  1  0  0  0  0
 13 12  1  0  0  0  0
 14 15  1  0  0  0  0
 17 16  1  0  0  0  0
M  END
