pdbs/fdla.pdb
 OpenBabel07281513453D

 77 80  0  0  1  0  0  0  0  0999 V2000
   42.8520    8.6380   -8.8610 C   0  0  0  0  0  0  0  0  0  0  0  0
   42.7830    7.2770   -8.4440 O   0  0  0  0  0  0  0  0  0  0  0  0
   43.8470    6.9600   -7.5490 C   0  0  1  0  0  0  0  0  0  0  0  0
   43.7290    7.7230   -6.3390 O   0  0  0  0  0  0  0  0  0  0  0  0
   42.4690    7.5410   -5.7020 C   0  0  1  0  0  0  0  0  0  0  0  0
   42.2920    6.0640   -5.3070 C   0  0  1  0  0  0  0  0  0  0  0  0
   42.3680    5.2060   -6.5760 C   0  0  1  0  0  0  0  0  0  0  0  0
   43.7480    5.4500   -7.2310 C   0  0  0  0  0  0  0  0  0  0  0  0
   45.2000    7.3060   -8.1990 C   0  0  0  0  0  0  0  0  0  0  0  0
   45.9850    6.2690   -8.7860 O   0  0  0  0  0  0  0  0  0  0  0  0
   45.6130    8.4980   -8.2140 O   0  0  0  0  0  0  0  0  0  0  0  0
   42.4270    8.4220   -4.4420 C   0  0  2  0  0  0  0  0  0  0  0  0
   41.1000    8.9270   -4.2620 O   0  0  0  0  0  0  0  0  0  0  0  0
   40.4990    8.1990   -4.1560 H   0  0  0  0  0  0  0  0  0  0  0  0
   43.4010    9.6010   -4.6140 C   0  0  0  0  0  0  0  0  0  0  0  0
   43.9440    9.9650   -3.3410 O   0  0  0  0  0  0  0  0  0  0  0  0
   44.5450   10.6930   -3.4470 H   0  0  0  0  0  0  0  0  0  0  0  0
   43.3700    5.6340   -4.4670 O   0  0  0  0  0  0  0  0  0  0  0  0
   43.2610    4.7220   -4.2230 H   0  0  0  0  0  0  0  0  0  0  0  0
   42.1810    3.8250   -6.2430 O   0  0  0  0  0  0  0  0  0  0  0  0
   41.6850    3.1240   -7.3860 C   0  0  2  0  0  0  0  0  0  0  0  0
   40.9940    4.1300   -8.3300 C   0  0  0  0  0  0  0  0  0  0  0  0
   39.8500    4.8090   -7.5740 C   0  0  2  0  0  0  0  0  0  0  0  0
   38.8830    3.7180   -7.1090 C   0  0  2  0  0  0  0  0  0  0  0  0
   39.6490    2.7210   -6.2200 C   0  0  2  0  0  0  0  0  0  0  0  0
   40.7330    2.1260   -6.9640 O   0  0  0  0  0  0  0  0  0  0  0  0
   39.1740    5.7360   -8.4280 O   0  0  0  0  0  0  0  0  0  0  0  0
   39.7740    6.4130   -8.7170 H   0  0  0  0  0  0  0  0  0  0  0  0
   38.3520    3.0340   -8.2480 O   0  0  0  0  0  0  0  0  0  0  0  0
   37.7520    2.3570   -7.9590 H   0  0  0  0  0  0  0  0  0  0  0  0
   38.6740    1.6240   -5.7480 C   0  0  2  0  0  0  0  0  0  0  0  0
   37.4790    1.6910   -6.5310 O   0  0  0  0  0  0  0  0  0  0  0  0
   37.6900    1.5610   -7.4480 H   0  0  0  0  0  0  0  0  0  0  0  0
   38.3320    1.8340   -4.2650 C   0  0  0  0  0  0  0  0  0  0  0  0
   39.4970    1.6080   -3.4690 O   0  0  0  0  0  0  0  0  0  0  0  0
   39.2860    1.7380   -2.5520 H   0  0  0  0  0  0  0  0  0  0  0  0
   42.8500    2.4450   -8.1250 C   0  0  0  0  0  0  0  0  0  0  0  0
   43.6060    1.6470   -7.5150 O   0  0  0  0  0  0  0  0  0  0  0  0
   43.0710    2.7290   -9.5090 O   0  0  0  0  0  0  0  0  0  0  0  0
   41.5800    9.4590   -8.5550 C   0  0  2  0  0  0  0  0  0  0  0  0
   40.5560    9.0430   -9.6280 C   0  0  2  0  0  0  0  0  0  0  0  0
   39.2730    9.8330   -9.4630 C   0  0  1  0  0  0  0  0  0  0  0  0
   39.6240   11.3110   -9.5850 C   0  0  2  0  0  0  0  0  0  0  0  0
   40.6190   11.6580   -8.4570 C   0  0  1  0  0  0  0  0  0  0  0  0
   41.8400   10.8850   -8.6230 O   0  0  0  0  0  0  0  0  0  0  0  0
   40.2710    7.6490   -9.5050 O   0  0  0  0  0  0  0  0  0  0  0  0
   40.0400    6.6430  -10.9240 P   0  0  0  0  0  0  0  0  0  0  0  0
   39.5570    7.6550  -12.2800 O   0  0  0  0  0  0  0  0  0  0  0  0
   38.7870    5.4510  -10.5980 O   0  0  0  0  0  0  0  0  0  0  0  0
   41.5490    5.8180  -11.3080 O   0  0  0  0  0  0  0  0  0  0  0  0
   38.3390    9.4590  -10.4790 O   0  0  0  0  0  0  0  0  0  0  0  0
   37.5350    9.9540  -10.3760 H   0  0  0  0  0  0  0  0  0  0  0  0
   38.4000   12.1090   -9.4520 N   0  0  0  0  0  0  0  0  0  0  0  0
   37.6790   11.8260  -10.1160 H   0  0  0  0  0  0  0  0  0  0  0  0
   38.6350   13.0980   -9.5340 H   0  0  0  0  0  0  0  0  0  0  0  0
   37.8930   11.9010   -8.5920 H   0  0  0  0  0  0  0  0  0  0  0  0
   40.9180   13.0650   -8.5100 O   0  0  0  0  0  0  0  0  0  0  0  0
   40.3240   13.7480   -7.3940 C   0  0  0  0  0  0  0  0  0  0  0  0
   40.9640   15.1560   -7.3120 C   0  0  2  0  0  0  0  0  0  0  0  0
   40.8150   15.8330   -8.6870 C   0  0  2  0  0  0  0  0  0  0  0  0
   41.4000   17.2400   -8.6100 C   0  0  1  0  0  0  0  0  0  0  0  0
   42.8700   17.1230   -8.2130 C   0  0  2  0  0  0  0  0  0  0  0  0
   42.9690   16.3850   -6.8620 C   0  0  1  0  0  0  0  0  0  0  0  0
   42.3670   15.0670   -6.9620 O   0  0  0  0  0  0  0  0  0  0  0  0
   39.4330   15.9070   -9.0400 O   0  0  0  0  0  0  0  0  0  0  0  0
   39.3410   16.3250   -9.8880 H   0  0  0  0  0  0  0  0  0  0  0  0
   41.2840   17.8880   -9.8790 O   0  0  0  0  0  0  0  0  0  0  0  0
   40.3700   17.9610  -10.1260 H   0  0  0  0  0  0  0  0  0  0  0  0
   43.4590   18.4680   -8.0940 N   0  0  0  0  0  0  0  0  0  0  0  0
   43.3330   19.0200   -8.9430 H   0  0  0  0  0  0  0  0  0  0  0  0
   44.4410   18.3900   -7.8290 H   0  0  0  0  0  0  0  0  0  0  0  0
   42.9340   19.0630   -7.4530 H   0  0  0  0  0  0  0  0  0  0  0  0
   44.3510   16.2680   -6.5180 O   0  0  0  0  0  0  0  0  0  0  0  0
   45.3390   15.8960   -7.9270 P   0  0  0  0  0  0  0  0  0  0  0  0
   45.3330   14.1600   -8.2010 O   0  0  0  0  0  0  0  0  0  0  0  0
   44.6670   16.7170   -9.3330 O   0  0  0  0  0  0  0  0  0  0  0  0
   46.9910   16.4480   -7.6600 O   0  0  0  0  0  0  0  0  0  0  0  0
  1  2  1  0  0  0  0
  3  2  1  6  0  0  0
  3  8  1  0  0  0  0
  3  4  1  0  0  0  0
  5  4  1  1  0  0  0
  5  6  1  0  0  0  0
  5 12  1  0  0  0  0
  6 18  1  6  0  0  0
  7 20  1  1  0  0  0
  7  6  1  0  0  0  0
  8  7  1  0  0  0  0
  9  3  1  0  0  0  0
 10  9  2  0  0  0  0
 11  9  1  0  0  0  0
 12 15  1  6  0  0  0
 12 13  1  0  0  0  0
 13 14  1  0  0  0  0
 15 16  1  0  0  0  0
 17 16  1  0  0  0  0
 18 19  1  0  0  0  0
 21 37  1  6  0  0  0
 21 26  1  0  0  0  0
 21 20  1  0  0  0  0
 22 23  1  0  0  0  0
 22 21  1  0  0  0  0
 23 27  1  6  0  0  0
 23 24  1  0  0  0  0
 24 29  1  6  0  0  0
 24 25  1  0  0  0  0
 25 26  1  6  0  0  0
 25 31  1  0  0  0  0
 28 27  1  0  0  0  0
 29 30  1  0  0  0  0
 31 32  1  1  0  0  0
 31 34  1  0  0  0  0
 33 32  1  0  0  0  0
 34 35  1  0  0  0  0
 35 36  1  0  0  0  0
 37 38  1  0  0  0  0
 39 37  2  0  0  0  0
 40  1  1  6  0  0  0
 41 46  1  1  0  0  0
 41 42  1  0  0  0  0
 41 40  1  0  0  0  0
 42 51  1  6  0  0  0
 43 42  1  0  0  0  0
 43 53  1  1  0  0  0
 43 44  1  0  0  0  0
 44 57  1  6  0  0  0
 45 40  1  0  0  0  0
 45 44  1  0  0  0  0
 47 49  1  0  0  0  0
 47 46  1  0  0  0  0
 48 47  2  0  0  0  0
 50 47  1  0  0  0  0
 51 52  1  0  0  0  0
 53 56  1  0  0  0  0
 54 53  1  0  0  0  0
 55 53  1  0  0  0  0
 57 58  1  0  0  0  0
 59 58  1  6  0  0  0
 59 64  1  0  0  0  0
 60 65  1  1  0  0  0
 60 61  1  0  0  0  0
 60 59  1  0  0  0  0
 61 67  1  6  0  0  0
 61 62  1  0  0  0  0
 62 69  1  1  0  0  0
 62 63  1  0  0  0  0
 63 73  1  6  0  0  0
 64 63  1  0  0  0  0
 66 65  1  0  0  0  0
 68 67  1  0  0  0  0
 69 71  1  0  0  0  0
 69 72  1  0  0  0  0
 70 69  1  0  0  0  0
 74 77  1  0  0  0  0
 74 73  1  0  0  0  0
 75 74  1  0  0  0  0
 76 74  2  0  0  0  0
M  END
