pdbs/ga8.pdb
 OpenBabel07281513453D

 25 25  0  0  1  0  0  0  0  0999 V2000
    0.7660    1.2970   -0.2420 C   0  0  1  0  0  0  0  0  0  0  0  0
    1.5170   -0.0120    0.0480 C   0  0  1  0  0  0  0  0  0  0  0  0
    0.7070   -1.2040   -0.4470 C   0  0  2  0  0  0  0  0  0  0  0  0
   -0.6720   -1.1760    0.2370 C   0  0  2  0  0  0  0  0  0  0  0  0
   -1.3530    0.0240   -0.1530 O   0  0  0  0  0  0  0  0  0  0  0  0
   -0.6930    1.2320    0.2630 C   0  0  2  0  0  0  0  0  0  0  0  0
   -0.5920   -1.2360    1.6660 O   0  0  0  0  0  0  0  0  0  0  0  0
   -0.4660   -2.5760    2.1360 C   0  0  0  0  0  0  0  0  0  0  0  0
   -0.4740   -2.5660    3.6330 C   0  0  0  0  0  0  0  0  0  0  0  0
    0.3500   -3.3380    4.3640 C   0  0  0  0  0  0  0  0  0  0  0  0
    0.3500   -3.3990    5.8640 C   0  0  0  0  0  0  0  0  0  0  0  0
    0.9730   -4.7110    6.3550 C   0  0  0  0  0  0  0  0  0  0  0  0
    1.0140   -4.7830    7.8820 C   0  0  0  0  0  0  0  0  0  0  0  0
    1.6910   -6.0720    8.3520 C   0  0  0  0  0  0  0  0  0  0  0  0
    1.7280   -6.1560    9.8770 C   0  0  0  0  0  0  0  0  0  0  0  0
    2.4000   -7.4370   10.3480 C   0  0  0  0  0  0  0  0  0  0  0  0
    1.4400   -2.4120   -0.2230 O   0  0  0  0  0  0  0  0  0  0  0  0
    2.3780   -2.1700   -0.3730 H   0  0  0  0  0  0  0  0  0  0  0  0
    2.8000   -0.0510   -0.6050 O   0  0  0  0  0  0  0  0  0  0  0  0
    2.9360    0.8120   -1.0400 H   0  0  0  0  0  0  0  0  0  0  0  0
   -1.5440    2.3990   -0.2750 C   0  0  0  0  0  0  0  0  0  0  0  0
   -1.1100    3.6790    0.1590 O   0  0  0  0  0  0  0  0  0  0  0  0
   -1.0060    3.6530    1.1250 H   0  0  0  0  0  0  0  0  0  0  0  0
    1.5070    2.3790    0.3310 O   0  0  0  0  0  0  0  0  0  0  0  0
    1.6740    2.1820    1.2690 H   0  0  0  0  0  0  0  0  0  0  0  0
  1  2  1  0  0  0  0
  1  6  1  0  0  0  0
  1 24  1  1  0  0  0
  2 19  1  6  0  0  0
  3 17  1  1  0  0  0
  3  2  1  0  0  0  0
  3  4  1  0  0  0  0
  4  7  1  1  0  0  0
  5  4  1  0  0  0  0
  5  6  1  0  0  0  0
  6 21  1  6  0  0  0
  7  8  1  0  0  0  0
  8  9  1  0  0  0  0
  9 10  2  0  0  0  0
 10 11  1  0  0  0  0
 11 12  1  0  0  0  0
 12 13  1  0  0  0  0
 13 14  1  0  0  0  0
 14 15  1  0  0  0  0
 15 16  1  0  0  0  0
 18 17  1  0  0  0  0
 20 19  1  0  0  0  0
 21 22  1  0  0  0  0
 22 23  1  0  0  0  0
 24 25  1  0  0  0  0
M  END
