pdbs/gb.pdb
 OpenBabel07281513453D

 17 17  0  0  1  0  0  0  0  0999 V2000
    0.6070    1.3280   -0.0630 C   0  0  1  0  0  0  0  0  0  0  0  0
    1.3630    0.0470    0.3010 C   0  0  1  0  0  0  0  0  0  0  0  0
    0.6530   -1.1810   -0.2760 C   0  0  2  0  0  0  0  0  0  0  0  0
   -0.8190   -1.1650    0.1870 C   0  0  1  0  0  0  0  0  0  0  0  0
   -1.4490    0.0210   -0.2870 O   0  0  0  0  0  0  0  0  0  0  0  0
   -0.8850    1.2040    0.2930 C   0  0  2  0  0  0  0  0  0  0  0  0
   -1.6600    2.4290   -0.2170 C   0  0  0  0  0  0  0  0  0  0  0  0
   -1.2790    3.6240    0.4560 O   0  0  0  0  0  0  0  0  0  0  0  0
   -0.3050    3.5970    0.5720 H   0  0  0  0  0  0  0  0  0  0  0  0
    1.2040    2.4410    0.6140 O   0  0  0  0  0  0  0  0  0  0  0  0
    2.1730    2.3060    0.5350 H   0  0  0  0  0  0  0  0  0  0  0  0
    2.7100    0.1770   -0.1810 O   0  0  0  0  0  0  0  0  0  0  0  0
    2.8460   -0.4810   -0.8890 H   0  0  0  0  0  0  0  0  0  0  0  0
   -1.5290   -2.2920   -0.3030 O   0  0  0  0  0  0  0  0  0  0  0  0
   -1.0320   -2.6530   -1.0570 H   0  0  0  0  0  0  0  0  0  0  0  0
    1.3370   -2.3810    0.0920 O   0  0  0  0  0  0  0  0  0  0  0  0
    1.4050   -2.4180    1.0640 H   0  0  0  0  0  0  0  0  0  0  0  0
  1  6  1  0  0  0  0
  1  2  1  0  0  0  0
  1 10  1  1  0  0  0
  2 12  1  6  0  0  0
  3 16  1  1  0  0  0
  3  4  1  0  0  0  0
  3  2  1  0  0  0  0
  4 14  1  6  0  0  0
  5  4  1  0  0  0  0
  5  6  1  0  0  0  0
  6  7  1  6  0  0  0
  7  8  1  0  0  0  0
  8  9  1  0  0  0  0
 11 10  1  0  0  0  0
 13 12  1  0  0  0  0
 15 14  1  0  0  0  0
 16 17  1  0  0  0  0
M  END
