pdbs/gb10.pdb
 OpenBabel07281513453D

 27 27  0  0  1  0  0  0  0  0999 V2000
    0.7560    1.4080   -0.1390 C   0  0  1  0  0  0  0  0  0  0  0  0
    1.5030    0.1110    0.2010 C   0  0  1  0  0  0  0  0  0  0  0  0
    0.7460   -1.1440   -0.2570 C   0  0  2  0  0  0  0  0  0  0  0  0
   -0.6770   -1.0560    0.3240 C   0  0  1  0  0  0  0  0  0  0  0  0
   -1.3270    0.1110   -0.1710 O   0  0  0  0  0  0  0  0  0  0  0  0
   -0.7230    1.3260    0.2750 C   0  0  2  0  0  0  0  0  0  0  0  0
   -1.4550   -2.1850   -0.0650 O   0  0  0  0  0  0  0  0  0  0  0  0
   -1.9980   -2.8460    1.0700 C   0  0  0  0  0  0  0  0  0  0  0  0
   -3.1570   -3.6920    0.6510 C   0  0  0  0  0  0  0  0  0  0  0  0
   -4.1060   -4.0610    1.5230 C   0  0  0  0  0  0  0  0  0  0  0  0
   -5.3090   -4.8850    1.1720 C   0  0  0  0  0  0  0  0  0  0  0  0
   -5.9880   -5.4050    2.4420 C   0  0  0  0  0  0  0  0  0  0  0  0
   -7.2520   -6.2010    2.1250 C   0  0  0  0  0  0  0  0  0  0  0  0
   -7.9250   -6.6770    3.4130 C   0  0  0  0  0  0  0  0  0  0  0  0
   -9.1920   -7.4740    3.1130 C   0  0  0  0  0  0  0  0  0  0  0  0
   -9.8600   -7.9540    4.4020 C   0  0  0  0  0  0  0  0  0  0  0  0
  -11.1240   -8.7580    4.1010 C   0  0  0  0  0  0  0  0  0  0  0  0
  -11.7910   -9.2420    5.3770 C   0  0  0  0  0  0  0  0  0  0  0  0
    1.4350   -2.3260    0.1780 O   0  0  0  0  0  0  0  0  0  0  0  0
    1.8790   -2.1460    1.0230 H   0  0  0  0  0  0  0  0  0  0  0  0
    2.8300    0.1760   -0.3430 O   0  0  0  0  0  0  0  0  0  0  0  0
    2.8030   -0.1650   -1.2560 H   0  0  0  0  0  0  0  0  0  0  0  0
   -1.5560    2.4830   -0.3060 C   0  0  0  0  0  0  0  0  0  0  0  0
   -1.1720    3.7730    0.1480 O   0  0  0  0  0  0  0  0  0  0  0  0
   -0.5780    3.6710    0.9140 H   0  0  0  0  0  0  0  0  0  0  0  0
    1.3990    2.4810    0.5630 O   0  0  0  0  0  0  0  0  0  0  0  0
    2.3610    2.3420    0.4410 H   0  0  0  0  0  0  0  0  0  0  0  0
  1  2  1  0  0  0  0
  1  6  1  0  0  0  0
  1 26  1  1  0  0  0
  2 21  1  6  0  0  0
  3 19  1  1  0  0  0
  3  2  1  0  0  0  0
  3  4  1  0  0  0  0
  4  7  1  6  0  0  0
  5  6  1  0  0  0  0
  5  4  1  0  0  0  0
  6 23  1  6  0  0  0
  7  8  1  0  0  0  0
  9  8  1  0  0  0  0
  9 10  2  0  0  0  0
 11 10  1  0  0  0  0
 11 12  1  0  0  0  0
 13 12  1  0  0  0  0
 13 14  1  0  0  0  0
 15 14  1  0  0  0  0
 15 16  1  0  0  0  0
 17 16  1  0  0  0  0
 17 18  1  0  0  0  0
 19 20  1  0  0  0  0
 22 21  1  0  0  0  0
 23 24  1  0  0  0  0
 24 25  1  0  0  0  0
 27 26  1  0  0  0  0
M  END
