pdbs/gb3.pdb
 OpenBabel07281513453D

 19 19  0  0  1  0  0  0  0  0999 V2000
    0.9190    1.3170   -0.3290 C   0  0  1  0  0  0  0  0  0  0  0  0
    1.7810    0.0870   -0.0510 C   0  0  1  0  0  0  0  0  0  0  0  0
    0.9620   -1.2010   -0.1130 C   0  0  2  0  0  0  0  0  0  0  0  0
   -0.2810   -1.0820    0.7960 C   0  0  1  0  0  0  0  0  0  0  0  0
   -1.0340    0.0950    0.4780 O   0  0  0  0  0  0  0  0  0  0  0  0
   -0.2950    1.3080    0.6130 C   0  0  2  0  0  0  0  0  0  0  0  0
   -1.1570   -2.1870    0.5640 O   0  0  0  0  0  0  0  0  0  0  0  0
   -0.9690   -3.2790    1.4560 C   0  0  0  0  0  0  0  0  0  0  0  0
   -1.7920   -3.0580    2.6900 C   0  0  0  0  0  0  0  0  0  0  0  0
   -1.5470   -3.6360    3.8710 C   0  0  0  0  0  0  0  0  0  0  0  0
    1.8150   -2.2910    0.2740 O   0  0  0  0  0  0  0  0  0  0  0  0
    2.6180   -2.1840   -0.2750 H   0  0  0  0  0  0  0  0  0  0  0  0
    2.8550    0.0120   -1.0040 O   0  0  0  0  0  0  0  0  0  0  0  0
    3.2170    0.9220   -1.0420 H   0  0  0  0  0  0  0  0  0  0  0  0
   -1.2510    2.4690    0.3050 C   0  0  0  0  0  0  0  0  0  0  0  0
   -0.5750    3.7220    0.3710 O   0  0  0  0  0  0  0  0  0  0  0  0
   -1.2610    4.4090    0.2740 H   0  0  0  0  0  0  0  0  0  0  0  0
    1.7480    2.4730   -0.1550 O   0  0  0  0  0  0  0  0  0  0  0  0
    1.1380    3.2360   -0.0430 H   0  0  0  0  0  0  0  0  0  0  0  0
  1 18  1  1  0  0  0
  1  2  1  0  0  0  0
  1  6  1  0  0  0  0
  2 13  1  6  0  0  0
  3  2  1  0  0  0  0
  3 11  1  1  0  0  0
  3  4  1  0  0  0  0
  4  7  1  6  0  0  0
  5  6  1  0  0  0  0
  5  4  1  0  0  0  0
  6 15  1  6  0  0  0
  7  8  1  0  0  0  0
  8  9  1  0  0  0  0
  9 10  2  0  0  0  0
 12 11  1  0  0  0  0
 14 13  1  0  0  0  0
 15 16  1  0  0  0  0
 17 16  1  0  0  0  0
 18 19  1  0  0  0  0
M  END
