pdbs/gb6.pdb
 OpenBabel07281513453D

 23 23  0  0  1  0  0  0  0  0999 V2000
    0.7650    1.2920   -0.2300 C   0  0  1  0  0  0  0  0  0  0  0  0
    1.5170   -0.0140    0.0720 C   0  0  1  0  0  0  0  0  0  0  0  0
    0.7080   -1.2080   -0.4230 C   0  0  2  0  0  0  0  0  0  0  0  0
   -0.6700   -1.1810    0.2630 C   0  0  2  0  0  0  0  0  0  0  0  0
   -1.3530    0.0170   -0.1340 O   0  0  0  0  0  0  0  0  0  0  0  0
   -0.6940    1.2280    0.2740 C   0  0  2  0  0  0  0  0  0  0  0  0
   -0.5890   -1.2330    1.6920 O   0  0  0  0  0  0  0  0  0  0  0  0
   -0.4340   -2.5680    2.1670 C   0  0  0  0  0  0  0  0  0  0  0  0
   -0.4470   -2.5590    3.6660 C   0  0  0  0  0  0  0  0  0  0  0  0
    0.3510   -3.3540    4.3930 C   0  0  0  0  0  0  0  0  0  0  0  0
    0.3550   -3.4230    5.8940 C   0  0  0  0  0  0  0  0  0  0  0  0
    0.9870   -4.7330    6.3770 C   0  0  0  0  0  0  0  0  0  0  0  0
    1.0350   -4.8170    7.9010 C   0  0  0  0  0  0  0  0  0  0  0  0
    1.7130   -6.0990    8.3610 C   0  0  0  0  0  0  0  0  0  0  0  0
    1.4420   -2.4160   -0.2000 O   0  0  0  0  0  0  0  0  0  0  0  0
    2.3820   -2.1710   -0.3310 H   0  0  0  0  0  0  0  0  0  0  0  0
    2.8070   -0.0620   -0.5650 O   0  0  0  0  0  0  0  0  0  0  0  0
    2.9040    0.7450   -1.1050 H   0  0  0  0  0  0  0  0  0  0  0  0
   -1.5470    2.3910   -0.2710 C   0  0  0  0  0  0  0  0  0  0  0  0
   -1.1170    3.6740    0.1570 O   0  0  0  0  0  0  0  0  0  0  0  0
   -1.0070    3.6520    1.1220 H   0  0  0  0  0  0  0  0  0  0  0  0
    1.4990    2.3830    0.3340 O   0  0  0  0  0  0  0  0  0  0  0  0
    1.6850    2.1850    1.2690 H   0  0  0  0  0  0  0  0  0  0  0  0
  1  2  1  0  0  0  0
  1  6  1  0  0  0  0
  1 22  1  1  0  0  0
  2 17  1  6  0  0  0
  3 15  1  1  0  0  0
  3  2  1  0  0  0  0
  3  4  1  0  0  0  0
  4  7  1  1  0  0  0
  5  4  1  0  0  0  0
  5  6  1  0  0  0  0
  6 19  1  6  0  0  0
  7  8  1  0  0  0  0
  8  9  1  0  0  0  0
  9 10  2  0  0  0  0
 10 11  1  0  0  0  0
 11 12  1  0  0  0  0
 12 13  1  0  0  0  0
 13 14  1  0  0  0  0
 16 15  1  0  0  0  0
 18 17  1  0  0  0  0
 19 20  1  0  0  0  0
 20 21  1  0  0  0  0
 22 23  1  0  0  0  0
M  END
