pdbs/gb8y.pdb
 OpenBabel07281513453D

 25 25  0  0  1  0  0  0  0  0999 V2000
    0.6870    1.4170   -0.1720 C   0  0  1  0  0  0  0  0  0  0  0  0
    1.5190    0.1690    0.1150 C   0  0  1  0  0  0  0  0  0  0  0  0
    0.7840   -1.1070   -0.3080 C   0  0  2  0  0  0  0  0  0  0  0  0
   -0.5990   -1.1030    0.3730 C   0  0  1  0  0  0  0  0  0  0  0  0
   -1.3420    0.0380   -0.0570 O   0  0  0  0  0  0  0  0  0  0  0  0
   -0.7490    1.2710    0.3590 C   0  0  2  0  0  0  0  0  0  0  0  0
   -1.3280   -2.2850    0.0350 O   0  0  0  0  0  0  0  0  0  0  0  0
   -2.1670   -2.6820    1.1180 C   0  0  0  0  0  0  0  0  0  0  0  0
   -3.2680   -3.6250    0.6470 C   0  0  0  0  0  0  0  0  0  0  0  0
   -4.0470   -4.1380    1.8590 C   0  0  0  0  0  0  0  0  0  0  0  0
   -5.2830   -4.9530    1.4830 C   0  0  0  0  0  0  0  0  0  0  0  0
   -5.9960   -5.4330    2.7500 C   0  0  0  0  0  0  0  0  0  0  0  0
   -7.2640   -6.2260    2.4370 C   0  0  0  0  0  0  0  0  0  0  0  0
   -7.9410   -6.6970    3.7260 C   0  0  0  0  0  0  0  0  0  0  0  0
   -9.2100   -7.4960    3.4360 C   0  0  0  0  0  0  0  0  0  0  0  0
   -9.8720   -7.9690    4.7210 C   0  0  0  0  0  0  0  0  0  0  0  0
    1.6120   -2.2260    0.0530 O   0  0  0  0  0  0  0  0  0  0  0  0
    1.5360   -2.3750    1.0090 H   0  0  0  0  0  0  0  0  0  0  0  0
    2.7730    0.2980   -0.5730 O   0  0  0  0  0  0  0  0  0  0  0  0
    3.0340   -0.6060   -0.8460 H   0  0  0  0  0  0  0  0  0  0  0  0
   -1.6130    2.4370   -0.1510 C   0  0  0  0  0  0  0  0  0  0  0  0
   -1.2350    3.6750    0.4430 O   0  0  0  0  0  0  0  0  0  0  0  0
   -0.2550    3.6990    0.4660 H   0  0  0  0  0  0  0  0  0  0  0  0
    1.3210    2.5580    0.4250 O   0  0  0  0  0  0  0  0  0  0  0  0
    2.2760    2.4580    0.2220 H   0  0  0  0  0  0  0  0  0  0  0  0
  1  2  1  0  0  0  0
  1  6  1  0  0  0  0
  1 24  1  1  0  0  0
  2 19  1  6  0  0  0
  3 17  1  1  0  0  0
  3  2  1  0  0  0  0
  3  4  1  0  0  0  0
  4  7  1  6  0  0  0
  5  6  1  0  0  0  0
  5  4  1  0  0  0  0
  6 21  1  6  0  0  0
  7  8  1  0  0  0  0
  9  8  1  0  0  0  0
  9 10  1  0  0  0  0
 11 10  1  0  0  0  0
 11 12  1  0  0  0  0
 13 12  1  0  0  0  0
 13 14  1  0  0  0  0
 15 14  1  0  0  0  0
 15 16  1  0  0  0  0
 17 18  1  0  0  0  0
 20 19  1  0  0  0  0
 21 22  1  0  0  0  0
 22 23  1  0  0  0  0
 25 24  1  0  0  0  0
M  END
