pdbs/gbm.pdb
 OpenBabel07281513453D

 17 17  0  0  1  0  0  0  0  0999 V2000
    0.6850    1.4720   -0.0610 C   0  0  1  0  0  0  0  0  0  0  0  0
    1.5040    0.2440    0.3420 C   0  0  1  0  0  0  0  0  0  0  0  0
    0.8880   -1.0400   -0.2080 C   0  0  2  0  0  0  0  0  0  0  0  0
   -0.6110   -1.0920    0.1560 C   0  0  1  0  0  0  0  0  0  0  0  0
   -1.2990    0.0710   -0.3000 O   0  0  0  0  0  0  0  0  0  0  0  0
   -0.7930    1.2650    0.3140 C   0  0  2  0  0  0  0  0  0  0  0  0
   -1.6460    2.4620   -0.1290 C   0  0  0  0  0  0  0  0  0  0  0  0
   -1.3290    3.6430    0.6000 O   0  0  0  0  0  0  0  0  0  0  0  0
   -0.3500    3.6840    0.6680 H   0  0  0  0  0  0  0  0  0  0  0  0
    1.2220    2.6340    0.5830 O   0  0  0  0  0  0  0  0  0  0  0  0
    2.1940    2.5630    0.4670 H   0  0  0  0  0  0  0  0  0  0  0  0
    2.8460    0.4030   -0.1470 O   0  0  0  0  0  0  0  0  0  0  0  0
    3.2630   -0.4780   -0.0460 H   0  0  0  0  0  0  0  0  0  0  0  0
   -1.2270   -2.2950   -0.3170 O   0  0  0  0  0  0  0  0  0  0  0  0
   -1.3220   -2.3990   -1.7310 C   0  0  0  0  0  0  0  0  0  0  0  0
    1.6120   -2.1550    0.3390 O   0  0  0  0  0  0  0  0  0  0  0  0
    0.9820   -2.8960    0.3990 H   0  0  0  0  0  0  0  0  0  0  0  0
  1  6  1  0  0  0  0
  1  2  1  0  0  0  0
  1 10  1  1  0  0  0
  2 12  1  6  0  0  0
  3  4  1  0  0  0  0
  3 16  1  1  0  0  0
  3  2  1  0  0  0  0
  4 14  1  6  0  0  0
  5  4  1  0  0  0  0
  5  6  1  0  0  0  0
  6  7  1  6  0  0  0
  7  8  1  0  0  0  0
  8  9  1  0  0  0  0
 11 10  1  0  0  0  0
 12 13  1  0  0  0  0
 15 14  1  0  0  0  0
 16 17  1  0  0  0  0
M  END
